file 988306 1650659087                                          
version 2
run General-0-20220422-21:24:42-8712
attr configname General
attr datetime 20220422-21:24:42
attr experiment General
attr inifile omnetpp.ini
attr iterationvars ""
attr iterationvarsf ""
attr measurement ""
attr network Scenario
attr processid 8712
attr repetition 0
attr replication #0
attr resultdir results
attr runnumber 0
attr seedset 0
param *.node[*].numApps 1
param *.node[*].app[0].typename "\"v2v_caching.veins_inet.VeinsInetSampleApplication\""
param *.node[*].app[0].interface "\"wlan0\""
param *.node[*].wlan[0].opMode "\"p\""
param *.node[*].wlan[0].radio.typename "\"Ieee80211DimensionalRadio\""
param *.node[*].wlan[0].radio.bandName "\"5.9 GHz\""
param *.node[*].wlan[0].radio.channelNumber 3
param *.node[*].wlan[0].radio.transmitter.power 20mW
param *.node[*].wlan[0].radio.bandwidth "10 MHz"
param *.node[*].wlan[*].radio.antenna.mobility.typename "\"AttachedMobility\""
param *.node[*].wlan[*].radio.antenna.mobility.mobilityModule "\"^.^.^.^.mobility\""
param *.node[*].wlan[*].radio.antenna.mobility.offsetX -2.5m
param *.node[*].wlan[*].radio.antenna.mobility.offsetZ 1.5m
param *.node[*].wlan[*].radio.antenna.mobility.constraintAreaMinX 0m
param *.node[*].wlan[*].radio.antenna.mobility.constraintAreaMaxX 0m
param *.node[*].wlan[*].radio.antenna.mobility.constraintAreaMinY 0m
param *.node[*].wlan[*].radio.antenna.mobility.constraintAreaMaxY 0m
param *.node[*].wlan[*].radio.antenna.mobility.constraintAreaMinZ 0m
param *.node[*].wlan[*].radio.antenna.mobility.constraintAreaMaxZ 0m
param *.node[*].ipv4.configurator.typename "\"HostAutoConfigurator\""
param *.node[*].ipv4.configurator.interfaces "\"wlan0\""
param *.node[*].ipv4.configurator.mcastGroups "\"224.0.0.1\""
param *.node[*].mobility.typename "\"VeinsInetMobility\""
param *.manager.updateInterval 0.1s
param *.manager.host "\"localhost\""
param *.manager.port 9999
param *.manager.autoShutdown true
param *.manager.launchConfig "xmldoc(\"a14.launchd.xml\")"
param *.manager.moduleType "\"v2v_caching.veins_inet.VeinsInetCar\""
param *.radioMedium.obstacleLoss.typename "\"IdealObstacleLoss\""

vector 0 Scenario.node[0].wlan[0].radio radioMode:vector ETV
attr interpolationmode sample-hold
attr source radioModeChanged
attr title "Radio mode, vector"
vector 1 Scenario.node[0].wlan[0].radio radioChannel:vector ETV
attr interpolationmode sample-hold
attr source radioChannelChanged
attr title "Radio channel, vector"
vector 2 Scenario.node[0].wlan[0].radio receptionState:vector ETV
attr interpolationmode sample-hold
attr source receptionStateChanged
attr title "Radio reception state, vector"
vector 3 Scenario.node[0].wlan[0].mac.dcf.recoveryProcedure contentionWindowChanged:vector ETV
attr interpolationmode sample-hold
attr title "contention window, vector"
vector 4 Scenario.node[0].cache requestsReceived:vector ETV
attr interpolationmode none
attr source receive
attr title "requests received, vector"
vector 5 Scenario.node[0].cache hitRate:vector ETV
attr interpolationmode none
attr source hitRate
attr title "hit rate, vector"
vector 6 Scenario.node[1].wlan[0].radio radioMode:vector ETV
attr interpolationmode sample-hold
attr source radioModeChanged
attr title "Radio mode, vector"
vector 7 Scenario.node[1].wlan[0].radio radioChannel:vector ETV
attr interpolationmode sample-hold
attr source radioChannelChanged
attr title "Radio channel, vector"
vector 8 Scenario.node[1].wlan[0].radio receptionState:vector ETV
attr interpolationmode sample-hold
attr source receptionStateChanged
attr title "Radio reception state, vector"
vector 9 Scenario.node[1].wlan[0].mac.dcf.recoveryProcedure contentionWindowChanged:vector ETV
attr interpolationmode sample-hold
attr title "contention window, vector"
vector 10 Scenario.node[0].dataServer requestsReceived:vector ETV
attr interpolationmode none
attr source receive
attr title "requests received, vector"
vector 11 Scenario.node[0].app[0] packetReceived:vector(packetBytes) ETV
attr interpolationmode none
attr source packetReceived
attr title "packets received, vector(packetBytes)"
vector 12 Scenario.node[0].app[0] throughput:vector ETV
attr source throughput(packetReceived)
attr title "throughput, vector"
attr unit bps
vector 13 Scenario.node[0].app[0] packetSent:vector(packetBytes) ETV
attr interpolationmode none
attr source packetSent
attr title "packets sent, vector(packetBytes)"
vector 14 Scenario.node[0].udp packetSent:vector(packetBytes) ETV
attr interpolationmode none
attr source packetSent
attr title "packets sent, vector(packetBytes)"
vector 15 Scenario.node[0].lo[0].lo rcvdPkFromHl:vector(packetBytes) ETV
attr interpolationmode none
attr source packetReceivedFromUpper
attr title "packets received from higher layer, vector(packetBytes)"
vector 16 Scenario.node[0].lo[0].lo passedUpPk:vector(packetBytes) ETV
attr interpolationmode none
attr source packetSentToUpper
attr title "packets passed to higher layer, vector(packetBytes)"
vector 17 Scenario.node[0].wlan[0].mac packetReceivedFromUpper:vector(packetBytes) ETV
attr interpolationmode none
attr title "packets received from upper layer, vector(packetBytes)"
vector 18 Scenario.node[0].wlan[0].mac.dcf.channelAccess.pendingQueue packetPushed:vector(packetBytes) ETV
attr interpolationmode none
attr title "packet pushed, vector(packetBytes)"
vector 19 Scenario.node[0].wlan[0].mac.dcf.channelAccess.pendingQueue queueLength:vector ETV
attr interpolationmode sample-hold
attr source "count(packetPushed) - count(packetPopped) - count(packetRemoved) - count(packetDropped)"
attr title "queue length, vector"
vector 20 Scenario.node[0].wlan[0].mac.dcf.channelAccess.contention backoffPeriodGenerated:vector ETV
attr interpolationmode none
attr title "backoff periods, vector"
vector 21 Scenario.node[0].wlan[0].mac.dcf.channelAccess.contention backoffActive:vector ETV
attr interpolationmode sample-hold
attr source count(backoffStarted)-count(backoffStopped)
attr title "backoff active, vector"
vector 22 Scenario.node[0].udp packetReceived:vector(packetBytes) ETV
attr interpolationmode none
attr source packetReceived
attr title "packets received, vector(packetBytes)"
vector 23 Scenario.node[0].udp passedUpPk:vector(count) ETV
attr interpolationmode none
attr source packetSentToUpper
attr title "packets passed up, vector(count)"
vector 24 Scenario.node[0].wlan[0].mac.dcf.channelAccess.pendingQueue packetPopped:vector(packetBytes) ETV
attr interpolationmode none
attr title "packet popped, vector(packetBytes)"
vector 25 Scenario.node[0].wlan[0].mac.dcf.channelAccess.pendingQueue queueingTime:vector ETV
attr interpolationmode none
attr source queueingTime(packetPopped)
attr title "queueing times, vector"
attr unit s
vector 26 Scenario.node[0].wlan[0].mac.dcf.channelAccess.inProgressFrames queueLength:vector ETV
attr interpolationmode sample-hold
attr source "count(packetEnqueued) - count(packetDequeued)"
attr title "queue length, vector"
vector 27 Scenario.node[0].wlan[0].mac.dcf datarateSelected:vector ETV
attr interpolationmode none
attr title "datarates selected, vector"
vector 28 Scenario.node[0].wlan[0].mac packetSentToLower:vector(packetBytes) ETV
attr interpolationmode none
attr title "packets sent to lower layer, vector(packetBytes)"
vector 29 Scenario.node[0].wlan[0].mac.dcf frameSequenceActive:vector ETV
attr interpolationmode sample-hold
attr source count(frameSequenceStarted)-count(frameSequenceFinished)
attr title "frame sequence active, vector"
vector 30 Scenario.node[0].wlan[0].radio transmissionState:vector ETV
attr interpolationmode sample-hold
attr source transmissionStateChanged
attr title "Radio transmission state, vector"
vector 31 Scenario.node[0].wlan[0].mac.dcf packetSentToPeer:vector(packetBytes) ETV
attr interpolationmode none
attr title "packets sent, vector(packetBytes)"
vector 32 Scenario.node[0].wlan[0].mac.dcf packetSentToPeerMulticast:vector(packetBytes) ETV
attr interpolationmode none
attr source ieee80211Multicast(packetSentToPeer)
attr title "packets sent: multicast, vector(packetBytes)"
vector 33 Scenario.node[0].wlan[0].mac.dcf packetSentToPeerWithoutRetry:vector(packetBytes) ETV
attr interpolationmode none
attr source ieee80211NotRetry(packetSentToPeer)
attr title "packets sent: without retry, vector(packetBytes)"
vector 34 Scenario.node[0].wlan[0].mac.dcf.channelAccess.inProgressFrames queueingTime:vector ETV
attr interpolationmode none
attr source queueingTime(packetDequeued)
attr title "queueing times, vector"
vector 35 Scenario.node[1].cache requestsReceived:vector ETV
attr interpolationmode none
attr source receive
attr title "requests received, vector"
vector 36 Scenario.node[1].cache hitRate:vector ETV
attr interpolationmode none
attr source hitRate
attr title "hit rate, vector"
vector 37 Scenario.node[1].dataServer requestsReceived:vector ETV
attr interpolationmode none
attr source receive
attr title "requests received, vector"
vector 38 Scenario.node[1].app[0] packetReceived:vector(packetBytes) ETV
attr interpolationmode none
attr source packetReceived
attr title "packets received, vector(packetBytes)"
vector 39 Scenario.node[1].app[0] throughput:vector ETV
attr source throughput(packetReceived)
attr title "throughput, vector"
attr unit bps
vector 40 Scenario.node[1].app[0] packetSent:vector(packetBytes) ETV
attr interpolationmode none
attr source packetSent
attr title "packets sent, vector(packetBytes)"
vector 41 Scenario.node[1].udp packetSent:vector(packetBytes) ETV
attr interpolationmode none
attr source packetSent
attr title "packets sent, vector(packetBytes)"
vector 42 Scenario.node[1].lo[0].lo rcvdPkFromHl:vector(packetBytes) ETV
attr interpolationmode none
attr source packetReceivedFromUpper
attr title "packets received from higher layer, vector(packetBytes)"
vector 43 Scenario.node[1].lo[0].lo passedUpPk:vector(packetBytes) ETV
attr interpolationmode none
attr source packetSentToUpper
attr title "packets passed to higher layer, vector(packetBytes)"
vector 44 Scenario.node[1].wlan[0].mac packetReceivedFromUpper:vector(packetBytes) ETV
attr interpolationmode none
attr title "packets received from upper layer, vector(packetBytes)"
vector 45 Scenario.node[1].wlan[0].mac.dcf.channelAccess.pendingQueue packetPushed:vector(packetBytes) ETV
attr interpolationmode none
attr title "packet pushed, vector(packetBytes)"
vector 46 Scenario.node[1].wlan[0].mac.dcf.channelAccess.pendingQueue queueLength:vector ETV
attr interpolationmode sample-hold
attr source "count(packetPushed) - count(packetPopped) - count(packetRemoved) - count(packetDropped)"
attr title "queue length, vector"
vector 47 Scenario.node[1].wlan[0].mac.dcf.channelAccess.contention backoffPeriodGenerated:vector ETV
attr interpolationmode none
attr title "backoff periods, vector"
vector 48 Scenario.node[1].wlan[0].mac.dcf.channelAccess.contention backoffActive:vector ETV
attr interpolationmode sample-hold
attr source count(backoffStarted)-count(backoffStopped)
attr title "backoff active, vector"
vector 49 Scenario.node[1].udp packetReceived:vector(packetBytes) ETV
attr interpolationmode none
attr source packetReceived
attr title "packets received, vector(packetBytes)"
vector 50 Scenario.node[1].udp passedUpPk:vector(count) ETV
attr interpolationmode none
attr source packetSentToUpper
attr title "packets passed up, vector(count)"
vector 51 Scenario.node[1].wlan[0].mac.dcf.channelAccess.pendingQueue packetPopped:vector(packetBytes) ETV
attr interpolationmode none
attr title "packet popped, vector(packetBytes)"
vector 52 Scenario.node[1].wlan[0].mac.dcf.channelAccess.pendingQueue queueingTime:vector ETV
attr interpolationmode none
attr source queueingTime(packetPopped)
attr title "queueing times, vector"
attr unit s
vector 53 Scenario.node[1].wlan[0].mac.dcf.channelAccess.inProgressFrames queueLength:vector ETV
attr interpolationmode sample-hold
attr source "count(packetEnqueued) - count(packetDequeued)"
attr title "queue length, vector"
vector 54 Scenario.node[1].wlan[0].mac.dcf datarateSelected:vector ETV
attr interpolationmode none
attr title "datarates selected, vector"
vector 55 Scenario.node[1].wlan[0].mac packetSentToLower:vector(packetBytes) ETV
attr interpolationmode none
attr title "packets sent to lower layer, vector(packetBytes)"
vector 56 Scenario.node[1].wlan[0].mac.dcf frameSequenceActive:vector ETV
attr interpolationmode sample-hold
attr source count(frameSequenceStarted)-count(frameSequenceFinished)
attr title "frame sequence active, vector"
vector 57 Scenario.node[1].wlan[0].radio transmissionState:vector ETV
attr interpolationmode sample-hold
attr source transmissionStateChanged
attr title "Radio transmission state, vector"
vector 58 Scenario.node[1].wlan[0].mac.dcf packetSentToPeer:vector(packetBytes) ETV
attr interpolationmode none
attr title "packets sent, vector(packetBytes)"
vector 59 Scenario.node[1].wlan[0].mac.dcf packetSentToPeerMulticast:vector(packetBytes) ETV
attr interpolationmode none
attr source ieee80211Multicast(packetSentToPeer)
attr title "packets sent: multicast, vector(packetBytes)"
vector 60 Scenario.node[1].wlan[0].mac.dcf packetSentToPeerWithoutRetry:vector(packetBytes) ETV
attr interpolationmode none
attr source ieee80211NotRetry(packetSentToPeer)
attr title "packets sent: without retry, vector(packetBytes)"
vector 61 Scenario.node[1].wlan[0].mac.dcf.channelAccess.inProgressFrames queueingTime:vector ETV
attr interpolationmode none
attr source queueingTime(packetDequeued)
attr title "queueing times, vector"
vector 62 Scenario.node[2].wlan[0].radio radioMode:vector ETV
attr interpolationmode sample-hold
attr source radioModeChanged
attr title "Radio mode, vector"
vector 63 Scenario.node[2].wlan[0].radio radioChannel:vector ETV
attr interpolationmode sample-hold
attr source radioChannelChanged
attr title "Radio channel, vector"
vector 64 Scenario.node[2].wlan[0].radio receptionState:vector ETV
attr interpolationmode sample-hold
attr source receptionStateChanged
attr title "Radio reception state, vector"
vector 65 Scenario.node[2].wlan[0].mac.dcf.recoveryProcedure contentionWindowChanged:vector ETV
attr interpolationmode sample-hold
attr title "contention window, vector"
vector 66 Scenario.node[1].app[0] RequestReceiveTime:vector ETV
attr interpolationmode none
attr source receiveTime
attr title "request time, vector"
vector 67 Scenario.node[2].cache requestsReceived:vector ETV
attr interpolationmode none
attr source receive
attr title "requests received, vector"
vector 68 Scenario.node[2].cache hitRate:vector ETV
attr interpolationmode none
attr source hitRate
attr title "hit rate, vector"
vector 69 Scenario.node[2].dataServer requestsReceived:vector ETV
attr interpolationmode none
attr source receive
attr title "requests received, vector"
vector 70 Scenario.node[2].app[0] packetReceived:vector(packetBytes) ETV
attr interpolationmode none
attr source packetReceived
attr title "packets received, vector(packetBytes)"
vector 71 Scenario.node[2].app[0] throughput:vector ETV
attr source throughput(packetReceived)
attr title "throughput, vector"
attr unit bps
vector 72 Scenario.node[2].app[0] packetSent:vector(packetBytes) ETV
attr interpolationmode none
attr source packetSent
attr title "packets sent, vector(packetBytes)"
vector 73 Scenario.node[2].udp packetSent:vector(packetBytes) ETV
attr interpolationmode none
attr source packetSent
attr title "packets sent, vector(packetBytes)"
vector 74 Scenario.node[2].lo[0].lo rcvdPkFromHl:vector(packetBytes) ETV
attr interpolationmode none
attr source packetReceivedFromUpper
attr title "packets received from higher layer, vector(packetBytes)"
vector 75 Scenario.node[2].lo[0].lo passedUpPk:vector(packetBytes) ETV
attr interpolationmode none
attr source packetSentToUpper
attr title "packets passed to higher layer, vector(packetBytes)"
vector 76 Scenario.node[2].wlan[0].mac packetReceivedFromUpper:vector(packetBytes) ETV
attr interpolationmode none
attr title "packets received from upper layer, vector(packetBytes)"
vector 77 Scenario.node[2].wlan[0].mac.dcf.channelAccess.pendingQueue packetPushed:vector(packetBytes) ETV
attr interpolationmode none
attr title "packet pushed, vector(packetBytes)"
vector 78 Scenario.node[2].wlan[0].mac.dcf.channelAccess.pendingQueue queueLength:vector ETV
attr interpolationmode sample-hold
attr source "count(packetPushed) - count(packetPopped) - count(packetRemoved) - count(packetDropped)"
attr title "queue length, vector"
vector 79 Scenario.node[2].wlan[0].mac.dcf.channelAccess.contention backoffPeriodGenerated:vector ETV
attr interpolationmode none
attr title "backoff periods, vector"
vector 80 Scenario.node[2].wlan[0].mac.dcf.channelAccess.contention backoffActive:vector ETV
attr interpolationmode sample-hold
attr source count(backoffStarted)-count(backoffStopped)
attr title "backoff active, vector"
vector 81 Scenario.node[2].udp packetReceived:vector(packetBytes) ETV
attr interpolationmode none
attr source packetReceived
attr title "packets received, vector(packetBytes)"
vector 82 Scenario.node[2].udp passedUpPk:vector(count) ETV
attr interpolationmode none
attr source packetSentToUpper
attr title "packets passed up, vector(count)"
vector 83 Scenario.node[2].wlan[0].mac.dcf.channelAccess.pendingQueue packetPopped:vector(packetBytes) ETV
attr interpolationmode none
attr title "packet popped, vector(packetBytes)"
vector 84 Scenario.node[2].wlan[0].mac.dcf.channelAccess.pendingQueue queueingTime:vector ETV
attr interpolationmode none
attr source queueingTime(packetPopped)
attr title "queueing times, vector"
attr unit s
vector 85 Scenario.node[2].wlan[0].mac.dcf.channelAccess.inProgressFrames queueLength:vector ETV
attr interpolationmode sample-hold
attr source "count(packetEnqueued) - count(packetDequeued)"
attr title "queue length, vector"
vector 86 Scenario.node[2].wlan[0].mac.dcf datarateSelected:vector ETV
attr interpolationmode none
attr title "datarates selected, vector"
vector 87 Scenario.node[2].wlan[0].mac packetSentToLower:vector(packetBytes) ETV
attr interpolationmode none
attr title "packets sent to lower layer, vector(packetBytes)"
vector 88 Scenario.node[2].wlan[0].mac.dcf frameSequenceActive:vector ETV
attr interpolationmode sample-hold
attr source count(frameSequenceStarted)-count(frameSequenceFinished)
attr title "frame sequence active, vector"
vector 89 Scenario.node[2].wlan[0].radio transmissionState:vector ETV
attr interpolationmode sample-hold
attr source transmissionStateChanged
attr title "Radio transmission state, vector"
vector 90 Scenario.node[2].wlan[0].mac.dcf packetSentToPeer:vector(packetBytes) ETV
attr interpolationmode none
attr title "packets sent, vector(packetBytes)"
vector 91 Scenario.node[2].wlan[0].mac.dcf packetSentToPeerMulticast:vector(packetBytes) ETV
attr interpolationmode none
attr source ieee80211Multicast(packetSentToPeer)
attr title "packets sent: multicast, vector(packetBytes)"
vector 92 Scenario.node[2].wlan[0].mac.dcf packetSentToPeerWithoutRetry:vector(packetBytes) ETV
attr interpolationmode none
attr source ieee80211NotRetry(packetSentToPeer)
attr title "packets sent: without retry, vector(packetBytes)"
vector 93 Scenario.node[2].wlan[0].mac.dcf.channelAccess.inProgressFrames queueingTime:vector ETV
attr interpolationmode none
attr source queueingTime(packetDequeued)
attr title "queueing times, vector"
vector 94 Scenario.node[2].app[0] RequestReceiveTime:vector ETV
attr interpolationmode none
attr source receiveTime
attr title "request time, vector"
vector 95 Scenario.node[3].wlan[0].radio radioMode:vector ETV
attr interpolationmode sample-hold
attr source radioModeChanged
attr title "Radio mode, vector"
vector 96 Scenario.node[3].wlan[0].radio radioChannel:vector ETV
attr interpolationmode sample-hold
attr source radioChannelChanged
attr title "Radio channel, vector"
vector 97 Scenario.node[3].wlan[0].radio receptionState:vector ETV
attr interpolationmode sample-hold
attr source receptionStateChanged
attr title "Radio reception state, vector"
vector 98 Scenario.node[3].wlan[0].mac.dcf.recoveryProcedure contentionWindowChanged:vector ETV
attr interpolationmode sample-hold
attr title "contention window, vector"
vector 99 Scenario.node[2].wlan[0].mac packetReceivedFromLower:vector(packetBytes) ETV
attr interpolationmode none
attr title "packets received from lower layer, vector(packetBytes)"
vector 100 Scenario.node[2].wlan[0].mac.dcf packetReceivedFromPeer:vector(packetBytes) ETV
attr interpolationmode none
attr title "packets received, vector(packetBytes)"
vector 101 Scenario.node[2].wlan[0].mac.dcf packetReceivedFromPeerMulticast:vector(packetBytes) ETV
attr interpolationmode none
attr source ieee80211Multicast(packetReceivedFromPeer)
attr title "packets received: multicast, vector(packetBytes)"
vector 102 Scenario.node[2].wlan[0].mac.dcf packetReceivedFromPeerWithoutRetry:vector(packetBytes) ETV
attr interpolationmode none
attr source ieee80211NotRetry(packetReceivedFromPeer)
attr title "packets received: without retry, vector(packetBytes)"
vector 103 Scenario.node[2].wlan[0].mac packetSentToUpper:vector(packetBytes) ETV
attr interpolationmode none
attr title "packets sent to upper layer, vector(packetBytes)"
vector 104 Scenario.node[4].wlan[0].radio radioMode:vector ETV
attr interpolationmode sample-hold
attr source radioModeChanged
attr title "Radio mode, vector"
vector 105 Scenario.node[4].wlan[0].radio radioChannel:vector ETV
attr interpolationmode sample-hold
attr source radioChannelChanged
attr title "Radio channel, vector"
vector 106 Scenario.node[4].wlan[0].radio receptionState:vector ETV
attr interpolationmode sample-hold
attr source receptionStateChanged
attr title "Radio reception state, vector"
vector 107 Scenario.node[4].wlan[0].mac.dcf.recoveryProcedure contentionWindowChanged:vector ETV
attr interpolationmode sample-hold
attr title "contention window, vector"
vector 108 Scenario.node[4].wlan[0].mac packetReceivedFromLower:vector(packetBytes) ETV
attr interpolationmode none
attr title "packets received from lower layer, vector(packetBytes)"
vector 109 Scenario.node[4].wlan[0].mac.dcf packetReceivedFromPeer:vector(packetBytes) ETV
attr interpolationmode none
attr title "packets received, vector(packetBytes)"
vector 110 Scenario.node[4].wlan[0].mac.dcf packetReceivedFromPeerMulticast:vector(packetBytes) ETV
attr interpolationmode none
attr source ieee80211Multicast(packetReceivedFromPeer)
attr title "packets received: multicast, vector(packetBytes)"
vector 111 Scenario.node[4].wlan[0].mac.dcf packetReceivedFromPeerWithoutRetry:vector(packetBytes) ETV
attr interpolationmode none
attr source ieee80211NotRetry(packetReceivedFromPeer)
attr title "packets received: without retry, vector(packetBytes)"
vector 112 Scenario.node[4].wlan[0].mac packetSentToUpper:vector(packetBytes) ETV
attr interpolationmode none
attr title "packets sent to upper layer, vector(packetBytes)"
vector 113 Scenario.node[4].udp packetReceived:vector(packetBytes) ETV
attr interpolationmode none
attr source packetReceived
attr title "packets received, vector(packetBytes)"
vector 114 Scenario.node[4].udp passedUpPk:vector(count) ETV
attr interpolationmode none
attr source packetSentToUpper
attr title "packets passed up, vector(count)"
vector 115 Scenario.node[4].app[0] packetReceived:vector(packetBytes) ETV
attr interpolationmode none
attr source packetReceived
attr title "packets received, vector(packetBytes)"
vector 116 Scenario.node[4].app[0] throughput:vector ETV
attr source throughput(packetReceived)
attr title "throughput, vector"
attr unit bps
vector 117 Scenario.node[4].cache requestsReceived:vector ETV
attr interpolationmode none
attr source receive
attr title "requests received, vector"
vector 118 Scenario.node[4].cache hitRate:vector ETV
attr interpolationmode none
attr source hitRate
attr title "hit rate, vector"
vector 119 Scenario.node[4].dataServer requestsReceived:vector ETV
attr interpolationmode none
attr source receive
attr title "requests received, vector"
vector 120 Scenario.node[0].wlan[0].mac packetReceivedFromLower:vector(packetBytes) ETV
attr interpolationmode none
attr title "packets received from lower layer, vector(packetBytes)"
vector 121 Scenario.node[0].wlan[0].mac.dcf packetReceivedFromPeer:vector(packetBytes) ETV
attr interpolationmode none
attr title "packets received, vector(packetBytes)"
vector 122 Scenario.node[0].wlan[0].mac.dcf packetReceivedFromPeerMulticast:vector(packetBytes) ETV
attr interpolationmode none
attr source ieee80211Multicast(packetReceivedFromPeer)
attr title "packets received: multicast, vector(packetBytes)"
vector 123 Scenario.node[0].wlan[0].mac.dcf packetReceivedFromPeerWithoutRetry:vector(packetBytes) ETV
attr interpolationmode none
attr source ieee80211NotRetry(packetReceivedFromPeer)
attr title "packets received: without retry, vector(packetBytes)"
vector 124 Scenario.node[0].wlan[0].mac packetSentToUpper:vector(packetBytes) ETV
attr interpolationmode none
attr title "packets sent to upper layer, vector(packetBytes)"
vector 125 Scenario.node[3].cache requestsReceived:vector ETV
attr interpolationmode none
attr source receive
attr title "requests received, vector"
vector 126 Scenario.node[3].cache hitRate:vector ETV
attr interpolationmode none
attr source hitRate
attr title "hit rate, vector"
vector 127 Scenario.node[3].dataServer requestsReceived:vector ETV
attr interpolationmode none
attr source receive
attr title "requests received, vector"
vector 128 Scenario.node[3].app[0] packetReceived:vector(packetBytes) ETV
attr interpolationmode none
attr source packetReceived
attr title "packets received, vector(packetBytes)"
vector 129 Scenario.node[3].app[0] throughput:vector ETV
attr source throughput(packetReceived)
attr title "throughput, vector"
attr unit bps
vector 130 Scenario.node[3].app[0] RequestReceiveTime:vector ETV
attr interpolationmode none
attr source receiveTime
attr title "request time, vector"
vector 131 Scenario.node[4].app[0] packetSent:vector(packetBytes) ETV
attr interpolationmode none
attr source packetSent
attr title "packets sent, vector(packetBytes)"
vector 132 Scenario.node[4].udp packetSent:vector(packetBytes) ETV
attr interpolationmode none
attr source packetSent
attr title "packets sent, vector(packetBytes)"
vector 133 Scenario.node[4].lo[0].lo rcvdPkFromHl:vector(packetBytes) ETV
attr interpolationmode none
attr source packetReceivedFromUpper
attr title "packets received from higher layer, vector(packetBytes)"
vector 134 Scenario.node[4].lo[0].lo passedUpPk:vector(packetBytes) ETV
attr interpolationmode none
attr source packetSentToUpper
attr title "packets passed to higher layer, vector(packetBytes)"
vector 135 Scenario.node[4].wlan[0].mac packetReceivedFromUpper:vector(packetBytes) ETV
attr interpolationmode none
attr title "packets received from upper layer, vector(packetBytes)"
vector 136 Scenario.node[4].wlan[0].mac.dcf.channelAccess.pendingQueue packetPushed:vector(packetBytes) ETV
attr interpolationmode none
attr title "packet pushed, vector(packetBytes)"
vector 137 Scenario.node[4].wlan[0].mac.dcf.channelAccess.pendingQueue queueLength:vector ETV
attr interpolationmode sample-hold
attr source "count(packetPushed) - count(packetPopped) - count(packetRemoved) - count(packetDropped)"
attr title "queue length, vector"
vector 138 Scenario.node[4].wlan[0].mac.dcf.channelAccess.contention backoffPeriodGenerated:vector ETV
attr interpolationmode none
attr title "backoff periods, vector"
vector 139 Scenario.node[4].wlan[0].mac.dcf.channelAccess.contention backoffActive:vector ETV
attr interpolationmode sample-hold
attr source count(backoffStarted)-count(backoffStopped)
attr title "backoff active, vector"
vector 140 Scenario.node[4].wlan[0].mac.dcf.channelAccess.pendingQueue packetPopped:vector(packetBytes) ETV
attr interpolationmode none
attr title "packet popped, vector(packetBytes)"
vector 141 Scenario.node[4].wlan[0].mac.dcf.channelAccess.pendingQueue queueingTime:vector ETV
attr interpolationmode none
attr source queueingTime(packetPopped)
attr title "queueing times, vector"
attr unit s
vector 142 Scenario.node[4].wlan[0].mac.dcf.channelAccess.inProgressFrames queueLength:vector ETV
attr interpolationmode sample-hold
attr source "count(packetEnqueued) - count(packetDequeued)"
attr title "queue length, vector"
vector 143 Scenario.node[4].wlan[0].mac.dcf datarateSelected:vector ETV
attr interpolationmode none
attr title "datarates selected, vector"
vector 144 Scenario.node[4].wlan[0].mac packetSentToLower:vector(packetBytes) ETV
attr interpolationmode none
attr title "packets sent to lower layer, vector(packetBytes)"
vector 145 Scenario.node[4].wlan[0].mac.dcf frameSequenceActive:vector ETV
attr interpolationmode sample-hold
attr source count(frameSequenceStarted)-count(frameSequenceFinished)
attr title "frame sequence active, vector"
vector 146 Scenario.node[4].wlan[0].radio transmissionState:vector ETV
attr interpolationmode sample-hold
attr source transmissionStateChanged
attr title "Radio transmission state, vector"
vector 147 Scenario.node[4].wlan[0].mac.dcf packetSentToPeer:vector(packetBytes) ETV
attr interpolationmode none
attr title "packets sent, vector(packetBytes)"
vector 148 Scenario.node[4].wlan[0].mac.dcf packetSentToPeerMulticast:vector(packetBytes) ETV
attr interpolationmode none
attr source ieee80211Multicast(packetSentToPeer)
attr title "packets sent: multicast, vector(packetBytes)"
vector 149 Scenario.node[4].wlan[0].mac.dcf packetSentToPeerWithoutRetry:vector(packetBytes) ETV
attr interpolationmode none
attr source ieee80211NotRetry(packetSentToPeer)
attr title "packets sent: without retry, vector(packetBytes)"
vector 150 Scenario.node[4].wlan[0].mac.dcf.channelAccess.inProgressFrames queueingTime:vector ETV
attr interpolationmode none
attr source queueingTime(packetDequeued)
attr title "queueing times, vector"
vector 151 Scenario.node[3].app[0] packetSent:vector(packetBytes) ETV
attr interpolationmode none
attr source packetSent
attr title "packets sent, vector(packetBytes)"
vector 152 Scenario.node[3].udp packetSent:vector(packetBytes) ETV
attr interpolationmode none
attr source packetSent
attr title "packets sent, vector(packetBytes)"
vector 153 Scenario.node[3].lo[0].lo rcvdPkFromHl:vector(packetBytes) ETV
attr interpolationmode none
attr source packetReceivedFromUpper
attr title "packets received from higher layer, vector(packetBytes)"
vector 154 Scenario.node[3].lo[0].lo passedUpPk:vector(packetBytes) ETV
attr interpolationmode none
attr source packetSentToUpper
attr title "packets passed to higher layer, vector(packetBytes)"
vector 155 Scenario.node[3].wlan[0].mac packetReceivedFromUpper:vector(packetBytes) ETV
attr interpolationmode none
attr title "packets received from upper layer, vector(packetBytes)"
vector 156 Scenario.node[3].wlan[0].mac.dcf.channelAccess.pendingQueue packetPushed:vector(packetBytes) ETV
attr interpolationmode none
attr title "packet pushed, vector(packetBytes)"
vector 157 Scenario.node[3].wlan[0].mac.dcf.channelAccess.pendingQueue queueLength:vector ETV
attr interpolationmode sample-hold
attr source "count(packetPushed) - count(packetPopped) - count(packetRemoved) - count(packetDropped)"
attr title "queue length, vector"
vector 158 Scenario.node[3].wlan[0].mac.dcf.channelAccess.contention backoffPeriodGenerated:vector ETV
attr interpolationmode none
attr title "backoff periods, vector"
vector 159 Scenario.node[3].wlan[0].mac.dcf.channelAccess.contention backoffActive:vector ETV
attr interpolationmode sample-hold
attr source count(backoffStarted)-count(backoffStopped)
attr title "backoff active, vector"
vector 160 Scenario.node[3].udp packetReceived:vector(packetBytes) ETV
attr interpolationmode none
attr source packetReceived
attr title "packets received, vector(packetBytes)"
vector 161 Scenario.node[3].udp passedUpPk:vector(count) ETV
attr interpolationmode none
attr source packetSentToUpper
attr title "packets passed up, vector(count)"
vector 162 Scenario.node[3].wlan[0].mac.dcf.channelAccess.pendingQueue packetPopped:vector(packetBytes) ETV
attr interpolationmode none
attr title "packet popped, vector(packetBytes)"
vector 163 Scenario.node[3].wlan[0].mac.dcf.channelAccess.pendingQueue queueingTime:vector ETV
attr interpolationmode none
attr source queueingTime(packetPopped)
attr title "queueing times, vector"
attr unit s
vector 164 Scenario.node[3].wlan[0].mac.dcf.channelAccess.inProgressFrames queueLength:vector ETV
attr interpolationmode sample-hold
attr source "count(packetEnqueued) - count(packetDequeued)"
attr title "queue length, vector"
vector 165 Scenario.node[3].wlan[0].mac.dcf datarateSelected:vector ETV
attr interpolationmode none
attr title "datarates selected, vector"
vector 166 Scenario.node[3].wlan[0].mac packetSentToLower:vector(packetBytes) ETV
attr interpolationmode none
attr title "packets sent to lower layer, vector(packetBytes)"
vector 167 Scenario.node[3].wlan[0].mac.dcf frameSequenceActive:vector ETV
attr interpolationmode sample-hold
attr source count(frameSequenceStarted)-count(frameSequenceFinished)
attr title "frame sequence active, vector"
vector 168 Scenario.node[3].wlan[0].radio transmissionState:vector ETV
attr interpolationmode sample-hold
attr source transmissionStateChanged
attr title "Radio transmission state, vector"
vector 169 Scenario.node[3].wlan[0].mac.dcf packetSentToPeer:vector(packetBytes) ETV
attr interpolationmode none
attr title "packets sent, vector(packetBytes)"
vector 170 Scenario.node[3].wlan[0].mac.dcf packetSentToPeerMulticast:vector(packetBytes) ETV
attr interpolationmode none
attr source ieee80211Multicast(packetSentToPeer)
attr title "packets sent: multicast, vector(packetBytes)"
vector 171 Scenario.node[3].wlan[0].mac.dcf packetSentToPeerWithoutRetry:vector(packetBytes) ETV
attr interpolationmode none
attr source ieee80211NotRetry(packetSentToPeer)
attr title "packets sent: without retry, vector(packetBytes)"
vector 172 Scenario.node[3].wlan[0].mac.dcf.channelAccess.inProgressFrames queueingTime:vector ETV
attr interpolationmode none
attr source queueingTime(packetDequeued)
attr title "queueing times, vector"
vector 173 Scenario.node[1].wlan[0].mac packetReceivedFromLower:vector(packetBytes) ETV
attr interpolationmode none
attr title "packets received from lower layer, vector(packetBytes)"
vector 174 Scenario.node[1].wlan[0].mac.dcf packetReceivedFromPeer:vector(packetBytes) ETV
attr interpolationmode none
attr title "packets received, vector(packetBytes)"
vector 175 Scenario.node[1].wlan[0].mac.dcf packetReceivedFromPeerMulticast:vector(packetBytes) ETV
attr interpolationmode none
attr source ieee80211Multicast(packetReceivedFromPeer)
attr title "packets received: multicast, vector(packetBytes)"
vector 176 Scenario.node[1].wlan[0].mac.dcf packetReceivedFromPeerWithoutRetry:vector(packetBytes) ETV
attr interpolationmode none
attr source ieee80211NotRetry(packetReceivedFromPeer)
attr title "packets received: without retry, vector(packetBytes)"
vector 177 Scenario.node[1].wlan[0].mac packetSentToUpper:vector(packetBytes) ETV
attr interpolationmode none
attr title "packets sent to upper layer, vector(packetBytes)"
vector 178 Scenario.node[3].wlan[0].mac packetReceivedFromLower:vector(packetBytes) ETV
attr interpolationmode none
attr title "packets received from lower layer, vector(packetBytes)"
vector 179 Scenario.node[3].wlan[0].mac.dcf packetReceivedFromPeer:vector(packetBytes) ETV
attr interpolationmode none
attr title "packets received, vector(packetBytes)"
vector 180 Scenario.node[3].wlan[0].mac.dcf packetReceivedFromPeerMulticast:vector(packetBytes) ETV
attr interpolationmode none
attr source ieee80211Multicast(packetReceivedFromPeer)
attr title "packets received: multicast, vector(packetBytes)"
vector 181 Scenario.node[3].wlan[0].mac.dcf packetReceivedFromPeerWithoutRetry:vector(packetBytes) ETV
attr interpolationmode none
attr source ieee80211NotRetry(packetReceivedFromPeer)
attr title "packets received: without retry, vector(packetBytes)"
vector 182 Scenario.node[3].wlan[0].mac packetSentToUpper:vector(packetBytes) ETV
attr interpolationmode none
attr title "packets sent to upper layer, vector(packetBytes)"
vector 183 Scenario.node[0].app[0] RequestReceiveTime:vector ETV
attr interpolationmode none
attr source receiveTime
attr title "request time, vector"
vector 184 Scenario.node[4].app[0] RequestReceiveTime:vector ETV
attr interpolationmode none
attr source receiveTime
attr title "request time, vector"
vector 185 Scenario.node[5].wlan[0].radio radioMode:vector ETV
attr interpolationmode sample-hold
attr source radioModeChanged
attr title "Radio mode, vector"
vector 186 Scenario.node[5].wlan[0].radio radioChannel:vector ETV
attr interpolationmode sample-hold
attr source radioChannelChanged
attr title "Radio channel, vector"
vector 187 Scenario.node[5].wlan[0].radio receptionState:vector ETV
attr interpolationmode sample-hold
attr source receptionStateChanged
attr title "Radio reception state, vector"
vector 188 Scenario.node[5].wlan[0].mac.dcf.recoveryProcedure contentionWindowChanged:vector ETV
attr interpolationmode sample-hold
attr title "contention window, vector"
vector 189 Scenario.node[6].wlan[0].radio radioMode:vector ETV
attr interpolationmode sample-hold
attr source radioModeChanged
attr title "Radio mode, vector"
vector 190 Scenario.node[6].wlan[0].radio radioChannel:vector ETV
attr interpolationmode sample-hold
attr source radioChannelChanged
attr title "Radio channel, vector"
vector 191 Scenario.node[6].wlan[0].radio receptionState:vector ETV
attr interpolationmode sample-hold
attr source receptionStateChanged
attr title "Radio reception state, vector"
vector 192 Scenario.node[6].wlan[0].mac.dcf.recoveryProcedure contentionWindowChanged:vector ETV
attr interpolationmode sample-hold
attr title "contention window, vector"
vector 193 Scenario.node[5].cache requestsReceived:vector ETV
attr interpolationmode none
attr source receive
attr title "requests received, vector"
vector 194 Scenario.node[5].cache hitRate:vector ETV
attr interpolationmode none
attr source hitRate
attr title "hit rate, vector"
vector 195 Scenario.node[5].dataServer requestsReceived:vector ETV
attr interpolationmode none
attr source receive
attr title "requests received, vector"
vector 196 Scenario.node[5].app[0] packetReceived:vector(packetBytes) ETV
attr interpolationmode none
attr source packetReceived
attr title "packets received, vector(packetBytes)"
vector 197 Scenario.node[5].app[0] throughput:vector ETV
attr source throughput(packetReceived)
attr title "throughput, vector"
attr unit bps
vector 198 Scenario.node[5].app[0] packetSent:vector(packetBytes) ETV
attr interpolationmode none
attr source packetSent
attr title "packets sent, vector(packetBytes)"
vector 199 Scenario.node[5].udp packetSent:vector(packetBytes) ETV
attr interpolationmode none
attr source packetSent
attr title "packets sent, vector(packetBytes)"
vector 200 Scenario.node[5].lo[0].lo rcvdPkFromHl:vector(packetBytes) ETV
attr interpolationmode none
attr source packetReceivedFromUpper
attr title "packets received from higher layer, vector(packetBytes)"
vector 201 Scenario.node[5].lo[0].lo passedUpPk:vector(packetBytes) ETV
attr interpolationmode none
attr source packetSentToUpper
attr title "packets passed to higher layer, vector(packetBytes)"
vector 202 Scenario.node[5].wlan[0].mac packetReceivedFromUpper:vector(packetBytes) ETV
attr interpolationmode none
attr title "packets received from upper layer, vector(packetBytes)"
vector 203 Scenario.node[5].wlan[0].mac.dcf.channelAccess.pendingQueue packetPushed:vector(packetBytes) ETV
attr interpolationmode none
attr title "packet pushed, vector(packetBytes)"
vector 204 Scenario.node[5].wlan[0].mac.dcf.channelAccess.pendingQueue queueLength:vector ETV
attr interpolationmode sample-hold
attr source "count(packetPushed) - count(packetPopped) - count(packetRemoved) - count(packetDropped)"
attr title "queue length, vector"
vector 205 Scenario.node[5].wlan[0].mac.dcf.channelAccess.contention backoffPeriodGenerated:vector ETV
attr interpolationmode none
attr title "backoff periods, vector"
vector 206 Scenario.node[5].wlan[0].mac.dcf.channelAccess.contention backoffActive:vector ETV
attr interpolationmode sample-hold
attr source count(backoffStarted)-count(backoffStopped)
attr title "backoff active, vector"
vector 207 Scenario.node[5].udp packetReceived:vector(packetBytes) ETV
attr interpolationmode none
attr source packetReceived
attr title "packets received, vector(packetBytes)"
vector 208 Scenario.node[5].udp passedUpPk:vector(count) ETV
attr interpolationmode none
attr source packetSentToUpper
attr title "packets passed up, vector(count)"
vector 209 Scenario.node[5].wlan[0].mac.dcf.channelAccess.pendingQueue packetPopped:vector(packetBytes) ETV
attr interpolationmode none
attr title "packet popped, vector(packetBytes)"
vector 210 Scenario.node[5].wlan[0].mac.dcf.channelAccess.pendingQueue queueingTime:vector ETV
attr interpolationmode none
attr source queueingTime(packetPopped)
attr title "queueing times, vector"
attr unit s
vector 211 Scenario.node[5].wlan[0].mac.dcf.channelAccess.inProgressFrames queueLength:vector ETV
attr interpolationmode sample-hold
attr source "count(packetEnqueued) - count(packetDequeued)"
attr title "queue length, vector"
vector 212 Scenario.node[5].wlan[0].mac.dcf datarateSelected:vector ETV
attr interpolationmode none
attr title "datarates selected, vector"
vector 213 Scenario.node[5].wlan[0].mac packetSentToLower:vector(packetBytes) ETV
attr interpolationmode none
attr title "packets sent to lower layer, vector(packetBytes)"
vector 214 Scenario.node[5].wlan[0].mac.dcf frameSequenceActive:vector ETV
attr interpolationmode sample-hold
attr source count(frameSequenceStarted)-count(frameSequenceFinished)
attr title "frame sequence active, vector"
vector 215 Scenario.node[5].wlan[0].radio transmissionState:vector ETV
attr interpolationmode sample-hold
attr source transmissionStateChanged
attr title "Radio transmission state, vector"
vector 216 Scenario.node[5].wlan[0].mac.dcf packetSentToPeer:vector(packetBytes) ETV
attr interpolationmode none
attr title "packets sent, vector(packetBytes)"
vector 217 Scenario.node[5].wlan[0].mac.dcf packetSentToPeerMulticast:vector(packetBytes) ETV
attr interpolationmode none
attr source ieee80211Multicast(packetSentToPeer)
attr title "packets sent: multicast, vector(packetBytes)"
vector 218 Scenario.node[5].wlan[0].mac.dcf packetSentToPeerWithoutRetry:vector(packetBytes) ETV
attr interpolationmode none
attr source ieee80211NotRetry(packetSentToPeer)
attr title "packets sent: without retry, vector(packetBytes)"
vector 219 Scenario.node[5].wlan[0].mac.dcf.channelAccess.inProgressFrames queueingTime:vector ETV
attr interpolationmode none
attr source queueingTime(packetDequeued)
attr title "queueing times, vector"
42	43628 134 154 1252 10.198 55.106 7 540 540 3780 2041200
43	43762 134 154 1252 10.198 55.106 7 540 540 3780 2041200
173	43896 59 900 1338 43.163424565575 55.133849265264 2 570 570 1140 649800
55	43955 134 161 1259 10.198 55.106 7 570 570 3990 2274300
44	44089 134 157 1255 10.198 55.106 7 542 542 3794 2056348
177	44223 59 900 1338 43.163424565575 55.133849265264 2 542 542 1084 587528
176	44282 59 900 1338 43.163424565575 55.133849265264 2 570 570 1140 649800
175	44341 59 900 1338 43.163424565575 55.133849265264 2 570 570 1140 649800
174	44400 59 900 1338 43.163424565575 55.133849265264 2 570 570 1140 649800
60	44459 155 165 1268 10.198424 55.106424 7 570 570 3990 2274300
59	44614 155 165 1268 10.198424 55.106424 7 570 570 3990 2274300
58	44769 155 165 1268 10.198424 55.106424 7 570 570 3990 2274300
56	44924 261 161 1268 10.198 55.106424 14 0 1 7 7
54	45185 169 161 1259 10.198 55.106 7 12000000 12000000 84000000 1.008e+015
52	45354 120 161 1259 10.198 55.106 7 0 0 0 0
51	45474 134 161 1259 10.198 55.106 7 570 570 3990 2274300
45	45608 134 157 1255 10.198 55.106 7 570 570 3990 2274300
46	45742 240 157 1259 10.198 55.106 14 0 1 7 7
61	45982 190 165 1268 10.198424 55.106424 7 0.000424 0.000424 0.002968 1.258432e-006
53	46172 261 161 1268 10.198 55.106424 14 0 1 7 7
48	46433 240 157 1258 10.198 55.106 14 0 1 7 7
47	46673 122 157 1255 10.198 55.106 7 0 13 46 468
9	46795 13 56 56 5.1 5.1 1 15 15 15 225
57	46808 522 162 1269 10.198 55.106424 28 0 2 28 42
8	47330 361 56 1337 5.1 55.133849265264 19 0 3 16 28
6	47691 283 56 1269 5.1 55.106424 17 0 3 37 95
7	47974 12 56 56 5.1 5.1 1 3 3 3 9
49	47986 191 158 1341 10.198 55.133849265264 9 520 520 4680 2433600
41	48177 134 152 1250 10.198 55.106 7 520 520 3640 1892800
50	48311 173 158 1341 10.198 55.133849265264 9 1 9 45 285
66	48484 143 316 1342 20.188 55.133849265264 4 0.033849265263996 0.088000000000001 0.24784926526399 0.016989772758911
39	48627 8363 151 1365 0.1 56.1 561 0 122880 819200 63753420800
38	56990 411 151 1342 10.198 55.133849265264 20 512 512 10240 5242880
40	57401 134 151 1249 10.198 55.106 7 512 512 3584 1835008
36	57535 178 129 1245 10.1 55.1 11 0 0 0 0
35	57713 180 129 1245 10.1 55.1 11 1 11 66 506
37	57893 180 132 1248 10.1 55.1 11 1 11 66 506
vector 220 Scenario.node[6].wlan[0].mac packetReceivedFromLower:vector(packetBytes) ETV
attr interpolationmode none
attr title "packets received from lower layer, vector(packetBytes)"
vector 221 Scenario.node[6].wlan[0].mac.dcf packetReceivedFromPeer:vector(packetBytes) ETV
attr interpolationmode none
attr title "packets received, vector(packetBytes)"
vector 222 Scenario.node[6].wlan[0].mac.dcf packetReceivedFromPeerMulticast:vector(packetBytes) ETV
attr interpolationmode none
attr source ieee80211Multicast(packetReceivedFromPeer)
attr title "packets received: multicast, vector(packetBytes)"
vector 223 Scenario.node[6].wlan[0].mac.dcf packetReceivedFromPeerWithoutRetry:vector(packetBytes) ETV
attr interpolationmode none
attr source ieee80211NotRetry(packetReceivedFromPeer)
attr title "packets received: without retry, vector(packetBytes)"
vector 224 Scenario.node[6].wlan[0].mac packetSentToUpper:vector(packetBytes) ETV
attr interpolationmode none
attr title "packets sent to upper layer, vector(packetBytes)"
vector 225 Scenario.node[6].udp packetReceived:vector(packetBytes) ETV
attr interpolationmode none
attr source packetReceived
attr title "packets received, vector(packetBytes)"
vector 226 Scenario.node[6].udp passedUpPk:vector(count) ETV
attr interpolationmode none
attr source packetSentToUpper
attr title "packets passed up, vector(count)"
vector 227 Scenario.node[6].app[0] packetReceived:vector(packetBytes) ETV
attr interpolationmode none
attr source packetReceived
attr title "packets received, vector(packetBytes)"
vector 228 Scenario.node[6].app[0] throughput:vector ETV
attr source throughput(packetReceived)
attr title "throughput, vector"
attr unit bps
vector 229 Scenario.node[6].cache requestsReceived:vector ETV
attr interpolationmode none
attr source receive
attr title "requests received, vector"
vector 230 Scenario.node[6].cache hitRate:vector ETV
attr interpolationmode none
attr source hitRate
attr title "hit rate, vector"
vector 231 Scenario.node[6].dataServer requestsReceived:vector ETV
attr interpolationmode none
attr source receive
attr title "requests received, vector"
vector 232 Scenario.node[6].app[0] packetSent:vector(packetBytes) ETV
attr interpolationmode none
attr source packetSent
attr title "packets sent, vector(packetBytes)"
vector 233 Scenario.node[6].udp packetSent:vector(packetBytes) ETV
attr interpolationmode none
attr source packetSent
attr title "packets sent, vector(packetBytes)"
vector 234 Scenario.node[6].lo[0].lo rcvdPkFromHl:vector(packetBytes) ETV
attr interpolationmode none
attr source packetReceivedFromUpper
attr title "packets received from higher layer, vector(packetBytes)"
vector 235 Scenario.node[6].lo[0].lo passedUpPk:vector(packetBytes) ETV
attr interpolationmode none
attr source packetSentToUpper
attr title "packets passed to higher layer, vector(packetBytes)"
vector 236 Scenario.node[6].wlan[0].mac packetReceivedFromUpper:vector(packetBytes) ETV
attr interpolationmode none
attr title "packets received from upper layer, vector(packetBytes)"
vector 237 Scenario.node[6].wlan[0].mac.dcf.channelAccess.pendingQueue packetPushed:vector(packetBytes) ETV
attr interpolationmode none
attr title "packet pushed, vector(packetBytes)"
vector 238 Scenario.node[6].wlan[0].mac.dcf.channelAccess.pendingQueue queueLength:vector ETV
attr interpolationmode sample-hold
attr source "count(packetPushed) - count(packetPopped) - count(packetRemoved) - count(packetDropped)"
attr title "queue length, vector"
vector 239 Scenario.node[6].wlan[0].mac.dcf.channelAccess.contention backoffPeriodGenerated:vector ETV
attr interpolationmode none
attr title "backoff periods, vector"
vector 240 Scenario.node[6].wlan[0].mac.dcf.channelAccess.contention backoffActive:vector ETV
attr interpolationmode sample-hold
attr source count(backoffStarted)-count(backoffStopped)
attr title "backoff active, vector"
vector 241 Scenario.node[6].wlan[0].mac.dcf.channelAccess.pendingQueue packetPopped:vector(packetBytes) ETV
attr interpolationmode none
attr title "packet popped, vector(packetBytes)"
vector 242 Scenario.node[6].wlan[0].mac.dcf.channelAccess.pendingQueue queueingTime:vector ETV
attr interpolationmode none
attr source queueingTime(packetPopped)
attr title "queueing times, vector"
attr unit s
vector 243 Scenario.node[6].wlan[0].mac.dcf.channelAccess.inProgressFrames queueLength:vector ETV
attr interpolationmode sample-hold
attr source "count(packetEnqueued) - count(packetDequeued)"
attr title "queue length, vector"
vector 244 Scenario.node[6].wlan[0].mac.dcf datarateSelected:vector ETV
attr interpolationmode none
attr title "datarates selected, vector"
vector 245 Scenario.node[6].wlan[0].mac packetSentToLower:vector(packetBytes) ETV
attr interpolationmode none
attr title "packets sent to lower layer, vector(packetBytes)"
vector 246 Scenario.node[6].wlan[0].mac.dcf frameSequenceActive:vector ETV
attr interpolationmode sample-hold
attr source count(frameSequenceStarted)-count(frameSequenceFinished)
attr title "frame sequence active, vector"
vector 247 Scenario.node[6].wlan[0].radio transmissionState:vector ETV
attr interpolationmode sample-hold
attr source transmissionStateChanged
attr title "Radio transmission state, vector"
vector 248 Scenario.node[6].wlan[0].mac.dcf packetSentToPeer:vector(packetBytes) ETV
attr interpolationmode none
attr title "packets sent, vector(packetBytes)"
vector 249 Scenario.node[6].wlan[0].mac.dcf packetSentToPeerMulticast:vector(packetBytes) ETV
attr interpolationmode none
attr source ieee80211Multicast(packetSentToPeer)
attr title "packets sent: multicast, vector(packetBytes)"
vector 250 Scenario.node[6].wlan[0].mac.dcf packetSentToPeerWithoutRetry:vector(packetBytes) ETV
attr interpolationmode none
attr source ieee80211NotRetry(packetSentToPeer)
attr title "packets sent: without retry, vector(packetBytes)"
vector 251 Scenario.node[6].wlan[0].mac.dcf.channelAccess.inProgressFrames queueingTime:vector ETV
attr interpolationmode none
attr source queueingTime(packetDequeued)
attr title "queueing times, vector"
vector 252 Scenario.node[6].app[0] RequestReceiveTime:vector ETV
attr interpolationmode none
attr source receiveTime
attr title "request time, vector"
vector 253 Scenario.node[5].app[0] RequestReceiveTime:vector ETV
attr interpolationmode none
attr source receiveTime
attr title "request time, vector"
vector 254 Scenario.node[7].wlan[0].radio radioMode:vector ETV
attr interpolationmode sample-hold
attr source radioModeChanged
attr title "Radio mode, vector"
vector 255 Scenario.node[7].wlan[0].radio radioChannel:vector ETV
attr interpolationmode sample-hold
attr source radioChannelChanged
attr title "Radio channel, vector"
vector 256 Scenario.node[7].wlan[0].radio receptionState:vector ETV
attr interpolationmode sample-hold
attr source receptionStateChanged
attr title "Radio reception state, vector"
vector 257 Scenario.node[7].wlan[0].mac.dcf.recoveryProcedure contentionWindowChanged:vector ETV
attr interpolationmode sample-hold
attr title "contention window, vector"
vector 258 Scenario.node[7].cache requestsReceived:vector ETV
attr interpolationmode none
attr source receive
attr title "requests received, vector"
vector 259 Scenario.node[7].cache hitRate:vector ETV
attr interpolationmode none
attr source hitRate
attr title "hit rate, vector"
vector 260 Scenario.node[7].dataServer requestsReceived:vector ETV
attr interpolationmode none
attr source receive
attr title "requests received, vector"
vector 261 Scenario.node[7].app[0] packetReceived:vector(packetBytes) ETV
attr interpolationmode none
attr source packetReceived
attr title "packets received, vector(packetBytes)"
vector 262 Scenario.node[7].app[0] throughput:vector ETV
attr source throughput(packetReceived)
attr title "throughput, vector"
attr unit bps
vector 263 Scenario.node[7].app[0] RequestReceiveTime:vector ETV
attr interpolationmode none
attr source receiveTime
attr title "request time, vector"
vector 264 Scenario.node[8].wlan[0].radio radioMode:vector ETV
attr interpolationmode sample-hold
attr source radioModeChanged
attr title "Radio mode, vector"
vector 265 Scenario.node[8].wlan[0].radio radioChannel:vector ETV
attr interpolationmode sample-hold
attr source radioChannelChanged
attr title "Radio channel, vector"
vector 266 Scenario.node[8].wlan[0].radio receptionState:vector ETV
attr interpolationmode sample-hold
attr source receptionStateChanged
attr title "Radio reception state, vector"
vector 267 Scenario.node[8].wlan[0].mac.dcf.recoveryProcedure contentionWindowChanged:vector ETV
attr interpolationmode sample-hold
attr title "contention window, vector"
vector 268 Scenario.node[8].wlan[0].mac packetReceivedFromLower:vector(packetBytes) ETV
attr interpolationmode none
attr title "packets received from lower layer, vector(packetBytes)"
vector 269 Scenario.node[8].wlan[0].mac.dcf packetReceivedFromPeer:vector(packetBytes) ETV
attr interpolationmode none
attr title "packets received, vector(packetBytes)"
vector 270 Scenario.node[8].wlan[0].mac.dcf packetReceivedFromPeerMulticast:vector(packetBytes) ETV
attr interpolationmode none
attr source ieee80211Multicast(packetReceivedFromPeer)
attr title "packets received: multicast, vector(packetBytes)"
vector 271 Scenario.node[8].wlan[0].mac.dcf packetReceivedFromPeerWithoutRetry:vector(packetBytes) ETV
attr interpolationmode none
attr source ieee80211NotRetry(packetReceivedFromPeer)
attr title "packets received: without retry, vector(packetBytes)"
vector 272 Scenario.node[8].wlan[0].mac packetSentToUpper:vector(packetBytes) ETV
attr interpolationmode none
attr title "packets sent to upper layer, vector(packetBytes)"
vector 273 Scenario.node[8].udp packetReceived:vector(packetBytes) ETV
attr interpolationmode none
attr source packetReceived
attr title "packets received, vector(packetBytes)"
vector 274 Scenario.node[8].udp passedUpPk:vector(count) ETV
attr interpolationmode none
attr source packetSentToUpper
attr title "packets passed up, vector(count)"
vector 275 Scenario.node[8].app[0] packetReceived:vector(packetBytes) ETV
attr interpolationmode none
attr source packetReceived
attr title "packets received, vector(packetBytes)"
vector 276 Scenario.node[8].app[0] throughput:vector ETV
attr source throughput(packetReceived)
attr title "throughput, vector"
attr unit bps
vector 277 Scenario.node[8].cache requestsReceived:vector ETV
attr interpolationmode none
attr source receive
attr title "requests received, vector"
vector 278 Scenario.node[8].cache hitRate:vector ETV
attr interpolationmode none
attr source hitRate
attr title "hit rate, vector"
vector 279 Scenario.node[8].dataServer requestsReceived:vector ETV
attr interpolationmode none
attr source receive
attr title "requests received, vector"
vector 280 Scenario.node[9].wlan[0].radio radioMode:vector ETV
attr interpolationmode sample-hold
attr source radioModeChanged
attr title "Radio mode, vector"
vector 281 Scenario.node[9].wlan[0].radio radioChannel:vector ETV
attr interpolationmode sample-hold
attr source radioChannelChanged
attr title "Radio channel, vector"
vector 282 Scenario.node[9].wlan[0].radio receptionState:vector ETV
attr interpolationmode sample-hold
attr source receptionStateChanged
attr title "Radio reception state, vector"
vector 283 Scenario.node[9].wlan[0].mac.dcf.recoveryProcedure contentionWindowChanged:vector ETV
attr interpolationmode sample-hold
attr title "contention window, vector"
vector 284 Scenario.node[5].wlan[0].mac packetReceivedFromLower:vector(packetBytes) ETV
attr interpolationmode none
attr title "packets received from lower layer, vector(packetBytes)"
vector 285 Scenario.node[5].wlan[0].mac.dcf packetReceivedFromPeer:vector(packetBytes) ETV
attr interpolationmode none
attr title "packets received, vector(packetBytes)"
vector 286 Scenario.node[5].wlan[0].mac.dcf packetReceivedFromPeerMulticast:vector(packetBytes) ETV
attr interpolationmode none
attr source ieee80211Multicast(packetReceivedFromPeer)
attr title "packets received: multicast, vector(packetBytes)"
vector 287 Scenario.node[5].wlan[0].mac.dcf packetReceivedFromPeerWithoutRetry:vector(packetBytes) ETV
attr interpolationmode none
attr source ieee80211NotRetry(packetReceivedFromPeer)
attr title "packets received: without retry, vector(packetBytes)"
vector 288 Scenario.node[5].wlan[0].mac packetSentToUpper:vector(packetBytes) ETV
attr interpolationmode none
attr title "packets sent to upper layer, vector(packetBytes)"
vector 289 Scenario.node[8].app[0] RequestReceiveTime:vector ETV
attr interpolationmode none
attr source receiveTime
attr title "request time, vector"
vector 290 Scenario.node[9].wlan[0].mac packetReceivedFromLower:vector(packetBytes) ETV
attr interpolationmode none
attr title "packets received from lower layer, vector(packetBytes)"
vector 291 Scenario.node[9].wlan[0].mac.dcf packetReceivedFromPeer:vector(packetBytes) ETV
attr interpolationmode none
attr title "packets received, vector(packetBytes)"
vector 292 Scenario.node[9].wlan[0].mac.dcf packetReceivedFromPeerMulticast:vector(packetBytes) ETV
attr interpolationmode none
attr source ieee80211Multicast(packetReceivedFromPeer)
attr title "packets received: multicast, vector(packetBytes)"
vector 293 Scenario.node[9].wlan[0].mac.dcf packetReceivedFromPeerWithoutRetry:vector(packetBytes) ETV
attr interpolationmode none
attr source ieee80211NotRetry(packetReceivedFromPeer)
attr title "packets received: without retry, vector(packetBytes)"
vector 294 Scenario.node[9].wlan[0].mac packetSentToUpper:vector(packetBytes) ETV
attr interpolationmode none
attr title "packets sent to upper layer, vector(packetBytes)"
vector 295 Scenario.node[9].udp packetReceived:vector(packetBytes) ETV
attr interpolationmode none
attr source packetReceived
attr title "packets received, vector(packetBytes)"
vector 296 Scenario.node[9].udp passedUpPk:vector(count) ETV
attr interpolationmode none
attr source packetSentToUpper
attr title "packets passed up, vector(count)"
vector 297 Scenario.node[9].app[0] packetReceived:vector(packetBytes) ETV
attr interpolationmode none
attr source packetReceived
attr title "packets received, vector(packetBytes)"
vector 298 Scenario.node[9].app[0] throughput:vector ETV
attr source throughput(packetReceived)
attr title "throughput, vector"
attr unit bps
vector 299 Scenario.node[9].cache requestsReceived:vector ETV
attr interpolationmode none
attr source receive
attr title "requests received, vector"
vector 300 Scenario.node[9].cache hitRate:vector ETV
attr interpolationmode none
attr source hitRate
attr title "hit rate, vector"
vector 301 Scenario.node[9].dataServer requestsReceived:vector ETV
attr interpolationmode none
attr source receive
attr title "requests received, vector"
vector 302 Scenario.node[9].app[0] packetSent:vector(packetBytes) ETV
attr interpolationmode none
attr source packetSent
attr title "packets sent, vector(packetBytes)"
vector 303 Scenario.node[9].udp packetSent:vector(packetBytes) ETV
attr interpolationmode none
attr source packetSent
attr title "packets sent, vector(packetBytes)"
vector 304 Scenario.node[9].lo[0].lo rcvdPkFromHl:vector(packetBytes) ETV
attr interpolationmode none
attr source packetReceivedFromUpper
attr title "packets received from higher layer, vector(packetBytes)"
vector 305 Scenario.node[9].lo[0].lo passedUpPk:vector(packetBytes) ETV
attr interpolationmode none
attr source packetSentToUpper
attr title "packets passed to higher layer, vector(packetBytes)"
vector 306 Scenario.node[9].wlan[0].mac packetReceivedFromUpper:vector(packetBytes) ETV
attr interpolationmode none
attr title "packets received from upper layer, vector(packetBytes)"
vector 307 Scenario.node[9].wlan[0].mac.dcf.channelAccess.pendingQueue packetPushed:vector(packetBytes) ETV
attr interpolationmode none
attr title "packet pushed, vector(packetBytes)"
vector 308 Scenario.node[9].wlan[0].mac.dcf.channelAccess.pendingQueue queueLength:vector ETV
attr interpolationmode sample-hold
attr source "count(packetPushed) - count(packetPopped) - count(packetRemoved) - count(packetDropped)"
attr title "queue length, vector"
vector 309 Scenario.node[9].wlan[0].mac.dcf.channelAccess.contention backoffPeriodGenerated:vector ETV
attr interpolationmode none
attr title "backoff periods, vector"
vector 310 Scenario.node[9].wlan[0].mac.dcf.channelAccess.contention backoffActive:vector ETV
attr interpolationmode sample-hold
attr source count(backoffStarted)-count(backoffStopped)
attr title "backoff active, vector"
vector 311 Scenario.node[9].wlan[0].mac.dcf.channelAccess.pendingQueue packetPopped:vector(packetBytes) ETV
attr interpolationmode none
attr title "packet popped, vector(packetBytes)"
vector 312 Scenario.node[9].wlan[0].mac.dcf.channelAccess.pendingQueue queueingTime:vector ETV
attr interpolationmode none
attr source queueingTime(packetPopped)
attr title "queueing times, vector"
attr unit s
vector 313 Scenario.node[9].wlan[0].mac.dcf.channelAccess.inProgressFrames queueLength:vector ETV
attr interpolationmode sample-hold
attr source "count(packetEnqueued) - count(packetDequeued)"
attr title "queue length, vector"
vector 314 Scenario.node[9].wlan[0].mac.dcf datarateSelected:vector ETV
attr interpolationmode none
attr title "datarates selected, vector"
vector 315 Scenario.node[9].wlan[0].mac packetSentToLower:vector(packetBytes) ETV
attr interpolationmode none
attr title "packets sent to lower layer, vector(packetBytes)"
vector 316 Scenario.node[9].wlan[0].mac.dcf frameSequenceActive:vector ETV
attr interpolationmode sample-hold
attr source count(frameSequenceStarted)-count(frameSequenceFinished)
attr title "frame sequence active, vector"
vector 317 Scenario.node[9].wlan[0].radio transmissionState:vector ETV
attr interpolationmode sample-hold
attr source transmissionStateChanged
attr title "Radio transmission state, vector"
vector 318 Scenario.node[9].wlan[0].mac.dcf packetSentToPeer:vector(packetBytes) ETV
attr interpolationmode none
attr title "packets sent, vector(packetBytes)"
vector 319 Scenario.node[9].wlan[0].mac.dcf packetSentToPeerMulticast:vector(packetBytes) ETV
attr interpolationmode none
attr source ieee80211Multicast(packetSentToPeer)
attr title "packets sent: multicast, vector(packetBytes)"
vector 320 Scenario.node[9].wlan[0].mac.dcf packetSentToPeerWithoutRetry:vector(packetBytes) ETV
attr interpolationmode none
attr source ieee80211NotRetry(packetSentToPeer)
attr title "packets sent: without retry, vector(packetBytes)"
vector 321 Scenario.node[9].wlan[0].mac.dcf.channelAccess.inProgressFrames queueingTime:vector ETV
attr interpolationmode none
attr source queueingTime(packetDequeued)
attr title "queueing times, vector"
vector 322 Scenario.node[10].wlan[0].radio radioMode:vector ETV
attr interpolationmode sample-hold
attr source radioModeChanged
attr title "Radio mode, vector"
vector 323 Scenario.node[10].wlan[0].radio radioChannel:vector ETV
attr interpolationmode sample-hold
attr source radioChannelChanged
attr title "Radio channel, vector"
vector 324 Scenario.node[10].wlan[0].radio receptionState:vector ETV
attr interpolationmode sample-hold
attr source receptionStateChanged
attr title "Radio reception state, vector"
vector 325 Scenario.node[10].wlan[0].mac.dcf.recoveryProcedure contentionWindowChanged:vector ETV
attr interpolationmode sample-hold
attr title "contention window, vector"
vector 326 Scenario.node[10].wlan[0].mac packetReceivedFromLower:vector(packetBytes) ETV
attr interpolationmode none
attr title "packets received from lower layer, vector(packetBytes)"
vector 327 Scenario.node[10].wlan[0].mac.dcf packetReceivedFromPeer:vector(packetBytes) ETV
attr interpolationmode none
attr title "packets received, vector(packetBytes)"
vector 328 Scenario.node[10].wlan[0].mac.dcf packetReceivedFromPeerMulticast:vector(packetBytes) ETV
attr interpolationmode none
attr source ieee80211Multicast(packetReceivedFromPeer)
attr title "packets received: multicast, vector(packetBytes)"
vector 329 Scenario.node[10].wlan[0].mac.dcf packetReceivedFromPeerWithoutRetry:vector(packetBytes) ETV
attr interpolationmode none
attr source ieee80211NotRetry(packetReceivedFromPeer)
attr title "packets received: without retry, vector(packetBytes)"
vector 330 Scenario.node[10].wlan[0].mac packetSentToUpper:vector(packetBytes) ETV
attr interpolationmode none
attr title "packets sent to upper layer, vector(packetBytes)"
vector 331 Scenario.node[10].udp packetReceived:vector(packetBytes) ETV
attr interpolationmode none
attr source packetReceived
attr title "packets received, vector(packetBytes)"
vector 332 Scenario.node[10].udp passedUpPk:vector(count) ETV
attr interpolationmode none
attr source packetSentToUpper
attr title "packets passed up, vector(count)"
vector 333 Scenario.node[10].app[0] packetReceived:vector(packetBytes) ETV
attr interpolationmode none
attr source packetReceived
attr title "packets received, vector(packetBytes)"
vector 334 Scenario.node[10].app[0] throughput:vector ETV
attr source throughput(packetReceived)
attr title "throughput, vector"
attr unit bps
vector 335 Scenario.node[10].cache requestsReceived:vector ETV
attr interpolationmode none
attr source receive
attr title "requests received, vector"
vector 336 Scenario.node[10].cache hitRate:vector ETV
attr interpolationmode none
attr source hitRate
attr title "hit rate, vector"
vector 337 Scenario.node[10].dataServer requestsReceived:vector ETV
attr interpolationmode none
attr source receive
attr title "requests received, vector"
vector 338 Scenario.node[9].app[0] RequestReceiveTime:vector ETV
attr interpolationmode none
attr source receiveTime
attr title "request time, vector"
vector 339 Scenario.node[10].app[0] RequestReceiveTime:vector ETV
attr interpolationmode none
attr source receiveTime
attr title "request time, vector"
15	80273 249 64 2117 5.189 75.126 13 540 540 7020 3790800
16	80522 249 64 2117 5.189 75.126 13 540 540 7020 3790800
120	80771 238 732 2529 37.16642492995 82.175424886024 8 570 570 4560 2599200
28	81009 249 71 2124 5.189 75.126 13 570 570 7410 4223700
17	81258 249 67 2120 5.189 75.126 13 542 542 7046 3818932
124	81507 238 732 2529 37.16642492995 82.175424886024 8 542 542 4336 2350112
123	81745 238 732 2529 37.16642492995 82.175424886024 8 570 570 4560 2599200
122	81983 238 732 2529 37.16642492995 82.175424886024 8 570 570 4560 2599200
121	82221 238 732 2529 37.16642492995 82.175424886024 8 570 570 4560 2599200
33	82459 288 75 2135 5.189424 75.126424 13 570 570 7410 4223700
32	82747 288 75 2135 5.189424 75.126424 13 570 570 7410 4223700
31	83035 288 75 2135 5.189424 75.126424 13 570 570 7410 4223700
29	83323 485 71 2135 5.189 75.126424 26 0 1 13 13
27	83808 314 71 2124 5.189 75.126 13 12000000 12000000 156000000 1.872e+015
25	84122 223 71 2124 5.189 75.126 13 0 0 0 0
24	84345 249 71 2124 5.189 75.126 13 570 570 7410 4223700
18	84594 249 67 2120 5.189 75.126 13 570 570 7410 4223700
19	84843 446 67 2124 5.189 75.126 26 0 1 13 13
34	85289 353 75 2135 5.189424 75.126424 13 0.000424 0.000424 0.005512 2.337088e-006
26	85642 485 71 2135 5.189 75.126424 26 0 1 13 13
21	86127 446 67 2123 5.189 75.126 26 0 1 13 13
20	86573 223 67 2120 5.189 75.126 13 0 9 63 393
3	86796 12 2 2 0.1 0.1 1 15 15 15 225
30	86808 970 72 2136 5.189 75.126424 52 0 2 52 78
2	87778 882 2 2528 0.1 82.175424886024 43 0 3 46 94
0	88660 492 2 2136 0.1 75.126424 29 0 3 67 173
1	89152 11 2 2 0.1 0.1 1 3 3 3 9
22	89163 479 68 2532 5.189 82.175424886024 21 520 520 10920 5678400
14	89642 249 62 2115 5.189 75.126 13 520 520 6760 3515200
23	89891 449 68 2532 5.189 82.175424886024 21 1 21 231 3311
183	90340 189 1021 2468 45.217849929574 80.18 5 0.035999999999994 0.117849929574 0.32169807867999 0.025451873484194
12	90529 12951 61 2816 0.1 85.1 851 0 122880 1720320 130862284800
11	103480 930 61 2545 5.189 82.227424886024 42 512 512 21504 11010048
13	104410 249 61 2114 5.189 75.126 13 512 512 6656 3407872
5	104659 372 55 2814 5.1 85.1 22 0 0 0 0
4	105031 385 55 2814 5.1 85.1 22 1 22 253 3795
10	105416 390 57 2534 5.1 82.175424886024 21 1 21 231 3311
vector 340 Scenario.node[10].app[0] packetSent:vector(packetBytes) ETV
attr interpolationmode none
attr source packetSent
attr title "packets sent, vector(packetBytes)"
vector 341 Scenario.node[10].udp packetSent:vector(packetBytes) ETV
attr interpolationmode none
attr source packetSent
attr title "packets sent, vector(packetBytes)"
vector 342 Scenario.node[10].lo[0].lo rcvdPkFromHl:vector(packetBytes) ETV
attr interpolationmode none
attr source packetReceivedFromUpper
attr title "packets received from higher layer, vector(packetBytes)"
vector 343 Scenario.node[10].lo[0].lo passedUpPk:vector(packetBytes) ETV
attr interpolationmode none
attr source packetSentToUpper
attr title "packets passed to higher layer, vector(packetBytes)"
vector 344 Scenario.node[10].wlan[0].mac packetReceivedFromUpper:vector(packetBytes) ETV
attr interpolationmode none
attr title "packets received from upper layer, vector(packetBytes)"
vector 345 Scenario.node[10].wlan[0].mac.dcf.channelAccess.pendingQueue packetPushed:vector(packetBytes) ETV
attr interpolationmode none
attr title "packet pushed, vector(packetBytes)"
vector 346 Scenario.node[10].wlan[0].mac.dcf.channelAccess.pendingQueue queueLength:vector ETV
attr interpolationmode sample-hold
attr source "count(packetPushed) - count(packetPopped) - count(packetRemoved) - count(packetDropped)"
attr title "queue length, vector"
vector 347 Scenario.node[10].wlan[0].mac.dcf.channelAccess.contention backoffPeriodGenerated:vector ETV
attr interpolationmode none
attr title "backoff periods, vector"
vector 348 Scenario.node[10].wlan[0].mac.dcf.channelAccess.contention backoffActive:vector ETV
attr interpolationmode sample-hold
attr source count(backoffStarted)-count(backoffStopped)
attr title "backoff active, vector"
vector 349 Scenario.node[10].wlan[0].mac.dcf.channelAccess.pendingQueue packetPopped:vector(packetBytes) ETV
attr interpolationmode none
attr title "packet popped, vector(packetBytes)"
vector 350 Scenario.node[10].wlan[0].mac.dcf.channelAccess.pendingQueue queueingTime:vector ETV
attr interpolationmode none
attr source queueingTime(packetPopped)
attr title "queueing times, vector"
attr unit s
vector 351 Scenario.node[10].wlan[0].mac.dcf.channelAccess.inProgressFrames queueLength:vector ETV
attr interpolationmode sample-hold
attr source "count(packetEnqueued) - count(packetDequeued)"
attr title "queue length, vector"
vector 352 Scenario.node[10].wlan[0].mac.dcf datarateSelected:vector ETV
attr interpolationmode none
attr title "datarates selected, vector"
vector 353 Scenario.node[10].wlan[0].mac packetSentToLower:vector(packetBytes) ETV
attr interpolationmode none
attr title "packets sent to lower layer, vector(packetBytes)"
vector 354 Scenario.node[10].wlan[0].mac.dcf frameSequenceActive:vector ETV
attr interpolationmode sample-hold
attr source count(frameSequenceStarted)-count(frameSequenceFinished)
attr title "frame sequence active, vector"
vector 355 Scenario.node[10].wlan[0].radio transmissionState:vector ETV
attr interpolationmode sample-hold
attr source transmissionStateChanged
attr title "Radio transmission state, vector"
vector 356 Scenario.node[10].wlan[0].mac.dcf packetSentToPeer:vector(packetBytes) ETV
attr interpolationmode none
attr title "packets sent, vector(packetBytes)"
vector 357 Scenario.node[10].wlan[0].mac.dcf packetSentToPeerMulticast:vector(packetBytes) ETV
attr interpolationmode none
attr source ieee80211Multicast(packetSentToPeer)
attr title "packets sent: multicast, vector(packetBytes)"
vector 358 Scenario.node[10].wlan[0].mac.dcf packetSentToPeerWithoutRetry:vector(packetBytes) ETV
attr interpolationmode none
attr source ieee80211NotRetry(packetSentToPeer)
attr title "packets sent: without retry, vector(packetBytes)"
vector 359 Scenario.node[10].wlan[0].mac.dcf.channelAccess.inProgressFrames queueingTime:vector ETV
attr interpolationmode none
attr source queueingTime(packetDequeued)
attr title "queueing times, vector"
vector 360 Scenario.node[8].app[0] packetSent:vector(packetBytes) ETV
attr interpolationmode none
attr source packetSent
attr title "packets sent, vector(packetBytes)"
vector 361 Scenario.node[8].udp packetSent:vector(packetBytes) ETV
attr interpolationmode none
attr source packetSent
attr title "packets sent, vector(packetBytes)"
vector 362 Scenario.node[8].lo[0].lo rcvdPkFromHl:vector(packetBytes) ETV
attr interpolationmode none
attr source packetReceivedFromUpper
attr title "packets received from higher layer, vector(packetBytes)"
vector 363 Scenario.node[8].lo[0].lo passedUpPk:vector(packetBytes) ETV
attr interpolationmode none
attr source packetSentToUpper
attr title "packets passed to higher layer, vector(packetBytes)"
vector 364 Scenario.node[8].wlan[0].mac packetReceivedFromUpper:vector(packetBytes) ETV
attr interpolationmode none
attr title "packets received from upper layer, vector(packetBytes)"
vector 365 Scenario.node[8].wlan[0].mac.dcf.channelAccess.pendingQueue packetPushed:vector(packetBytes) ETV
attr interpolationmode none
attr title "packet pushed, vector(packetBytes)"
vector 366 Scenario.node[8].wlan[0].mac.dcf.channelAccess.pendingQueue queueLength:vector ETV
attr interpolationmode sample-hold
attr source "count(packetPushed) - count(packetPopped) - count(packetRemoved) - count(packetDropped)"
attr title "queue length, vector"
vector 367 Scenario.node[8].wlan[0].mac.dcf.channelAccess.contention backoffPeriodGenerated:vector ETV
attr interpolationmode none
attr title "backoff periods, vector"
vector 368 Scenario.node[8].wlan[0].mac.dcf.channelAccess.contention backoffActive:vector ETV
attr interpolationmode sample-hold
attr source count(backoffStarted)-count(backoffStopped)
attr title "backoff active, vector"
vector 369 Scenario.node[8].wlan[0].mac.dcf.channelAccess.pendingQueue packetPopped:vector(packetBytes) ETV
attr interpolationmode none
attr title "packet popped, vector(packetBytes)"
vector 370 Scenario.node[8].wlan[0].mac.dcf.channelAccess.pendingQueue queueingTime:vector ETV
attr interpolationmode none
attr source queueingTime(packetPopped)
attr title "queueing times, vector"
attr unit s
vector 371 Scenario.node[8].wlan[0].mac.dcf.channelAccess.inProgressFrames queueLength:vector ETV
attr interpolationmode sample-hold
attr source "count(packetEnqueued) - count(packetDequeued)"
attr title "queue length, vector"
vector 372 Scenario.node[8].wlan[0].mac.dcf datarateSelected:vector ETV
attr interpolationmode none
attr title "datarates selected, vector"
vector 373 Scenario.node[8].wlan[0].mac packetSentToLower:vector(packetBytes) ETV
attr interpolationmode none
attr title "packets sent to lower layer, vector(packetBytes)"
vector 374 Scenario.node[8].wlan[0].mac.dcf frameSequenceActive:vector ETV
attr interpolationmode sample-hold
attr source count(frameSequenceStarted)-count(frameSequenceFinished)
attr title "frame sequence active, vector"
vector 375 Scenario.node[8].wlan[0].radio transmissionState:vector ETV
attr interpolationmode sample-hold
attr source transmissionStateChanged
attr title "Radio transmission state, vector"
vector 376 Scenario.node[8].wlan[0].mac.dcf packetSentToPeer:vector(packetBytes) ETV
attr interpolationmode none
attr title "packets sent, vector(packetBytes)"
vector 377 Scenario.node[8].wlan[0].mac.dcf packetSentToPeerMulticast:vector(packetBytes) ETV
attr interpolationmode none
attr source ieee80211Multicast(packetSentToPeer)
attr title "packets sent: multicast, vector(packetBytes)"
vector 378 Scenario.node[8].wlan[0].mac.dcf packetSentToPeerWithoutRetry:vector(packetBytes) ETV
attr interpolationmode none
attr source ieee80211NotRetry(packetSentToPeer)
attr title "packets sent: without retry, vector(packetBytes)"
vector 379 Scenario.node[8].wlan[0].mac.dcf.channelAccess.inProgressFrames queueingTime:vector ETV
attr interpolationmode none
attr source queueingTime(packetDequeued)
attr title "queueing times, vector"
vector 380 Scenario.node[11].wlan[0].radio radioMode:vector ETV
attr interpolationmode sample-hold
attr source radioModeChanged
attr title "Radio mode, vector"
vector 381 Scenario.node[11].wlan[0].radio radioChannel:vector ETV
attr interpolationmode sample-hold
attr source radioChannelChanged
attr title "Radio channel, vector"
vector 382 Scenario.node[11].wlan[0].radio receptionState:vector ETV
attr interpolationmode sample-hold
attr source receptionStateChanged
attr title "Radio reception state, vector"
vector 383 Scenario.node[11].wlan[0].mac.dcf.recoveryProcedure contentionWindowChanged:vector ETV
attr interpolationmode sample-hold
attr title "contention window, vector"
vector 384 Scenario.node[11].wlan[0].mac packetReceivedFromLower:vector(packetBytes) ETV
attr interpolationmode none
attr title "packets received from lower layer, vector(packetBytes)"
vector 385 Scenario.node[11].wlan[0].mac.dcf packetReceivedFromPeer:vector(packetBytes) ETV
attr interpolationmode none
attr title "packets received, vector(packetBytes)"
vector 386 Scenario.node[11].wlan[0].mac.dcf packetReceivedFromPeerMulticast:vector(packetBytes) ETV
attr interpolationmode none
attr source ieee80211Multicast(packetReceivedFromPeer)
attr title "packets received: multicast, vector(packetBytes)"
vector 387 Scenario.node[11].wlan[0].mac.dcf packetReceivedFromPeerWithoutRetry:vector(packetBytes) ETV
attr interpolationmode none
attr source ieee80211NotRetry(packetReceivedFromPeer)
attr title "packets received: without retry, vector(packetBytes)"
vector 388 Scenario.node[11].wlan[0].mac packetSentToUpper:vector(packetBytes) ETV
attr interpolationmode none
attr title "packets sent to upper layer, vector(packetBytes)"
vector 389 Scenario.node[11].udp packetReceived:vector(packetBytes) ETV
attr interpolationmode none
attr source packetReceived
attr title "packets received, vector(packetBytes)"
vector 390 Scenario.node[11].udp passedUpPk:vector(count) ETV
attr interpolationmode none
attr source packetSentToUpper
attr title "packets passed up, vector(count)"
vector 391 Scenario.node[11].app[0] packetReceived:vector(packetBytes) ETV
attr interpolationmode none
attr source packetReceived
attr title "packets received, vector(packetBytes)"
vector 392 Scenario.node[11].app[0] throughput:vector ETV
attr source throughput(packetReceived)
attr title "throughput, vector"
attr unit bps
vector 393 Scenario.node[11].cache requestsReceived:vector ETV
attr interpolationmode none
attr source receive
attr title "requests received, vector"
vector 394 Scenario.node[11].cache hitRate:vector ETV
attr interpolationmode none
attr source hitRate
attr title "hit rate, vector"
vector 395 Scenario.node[11].dataServer requestsReceived:vector ETV
attr interpolationmode none
attr source receive
attr title "requests received, vector"
74	116706 341 362 3674 22.124 97.119 16 540 540 8640 4665600
75	117047 341 362 3674 22.124 97.119 16 540 540 8640 4665600
99	117388 314 670 3772 35.124424940779 97.176848308452 11 570 570 6270 3573900
[...]
431	648151 386 4427 10658 108.151424212101 178.177 15 540 540 8100 4374000
384	648537 711 3838 8633 98.193424969023 148.162850014866 23 570 570 13110 7472700
441	649248 386 4434 10665 108.151424212101 178.177 15 570 570 8550 4873500
432	649634 386 4430 10661 108.151424212101 178.177 15 542 542 8130 4406460
388	650020 711 3838 8633 98.193424969023 148.162850014866 23 542 542 12466 6756572
387	650731 711 3838 8633 98.193424969023 148.162850014866 23 570 570 13110 7472700
386	651442 711 3838 8633 98.193424969023 148.162850014866 23 570 570 13110 7472700
385	652153 711 3838 8633 98.193424969023 148.162850014866 23 570 570 13110 7472700
446	652864 413 4447 10679 108.151848212101 178.177424 15 570 570 8550 4873500
445	653277 413 4447 10679 108.151848212101 178.177424 15 570 570 8550 4873500
444	653690 413 4447 10679 108.151848212101 178.177424 15 570 570 8550 4873500
442	654103 739 4434 10679 108.151424212101 178.177424 30 0 1 15 15
440	654842 461 4434 10665 108.151424212101 178.177 15 12000000 12000000 180000000 2.16e+015
438	655303 356 4434 10665 108.151424212101 178.177 15 0 0 0 0
437	655659 386 4434 10665 108.151424212101 178.177 15 570 570 8550 4873500
433	656045 386 4430 10661 108.151424212101 178.177 15 570 570 8550 4873500
434	656431 712 4430 10665 108.151424212101 178.177 30 0 1 15 15
447	657143 488 4447 10679 108.151848212101 178.177424 15 0.000424 0.000424 0.00636 2.69664e-006
439	657631 739 4434 10679 108.151424212101 178.177424 30 0 1 15 15
436	658370 712 4430 10664 108.151424212101 178.177 30 0 1 15 15
435	659082 363 4430 10661 108.151424212101 178.177 15 0 14 129 1389
383	659445 18 3797 3797 98.1 98.1 1 15 15 15 225
443	659463 1478 4435 10680 108.151424212101 178.177424 60 0 2 60 90
382	660941 2086 3797 10680 98.1 178.177424 77 0 3 108 246
380	663027 790 3797 10680 98.1 178.177424 33 0 3 77 199
381	663817 17 3797 3797 98.1 98.1 1 3 3 3 9
389	663834 1097 3841 10662 98.193424969023 178.177 38 520 520 19760 10275200
429	664931 386 4425 10656 108.151424212101 178.177 15 520 520 7800 4056000
390	665317 1050 3841 10662 98.193424969023 178.177 38 1 38 741 19019
400	666367 481 4049 10060 103.114 168.177 12 0.01400000000001 0.152848838324 0.76967081248104 0.063842597719711
392	666848 31237 3842 10843 0.1 180 1800 0 245760 2662400 320444825600
391	698085 1791 3842 10663 98.193424969023 178.177 65 512 512 33280 17039360
428	699876 386 4424 10655 108.151424212101 178.177 15 512 512 7680 3932160
394	700262 609 3842 10650 98.193424969023 178.1 27 0 0 0 0
393	700871 627 3842 10650 98.193424969023 178.1 27 1 27 378 6930
395	701498 627 3843 10654 98.193424969023 178.1 27 1 27 378 6930
459	702125 195 5565 10599 120.145 177.194424068447 8 540 540 4320 2332800
460	702320 195 5565 10599 120.145 177.194424068447 8 540 540 4320 2332800
548	702515 219 6757 10578 130.254848655094 177.144424068447 7 570 570 3990 2274300
472	702734 195 5572 10606 120.145 177.194424068447 8 570 570 4560 2599200
461	702929 195 5568 10602 120.145 177.194424068447 8 542 542 4336 2350112
552	703124 219 6757 10578 130.254848655094 177.144424068447 7 542 542 3794 2056348
551	703343 219 6757 10578 130.254848655094 177.144424068447 7 570 570 3990 2274300
550	703562 219 6757 10578 130.254848655094 177.144424068447 7 570 570 3990 2274300
549	703781 219 6757 10578 130.254848655094 177.144424068447 7 570 570 3990 2274300
477	704000 214 5585 10620 120.145424 177.194848068447 8 570 570 4560 2599200
476	704214 214 5585 10620 120.145424 177.194848068447 8 570 570 4560 2599200
475	704428 214 5585 10620 120.145424 177.194848068447 8 570 570 4560 2599200
473	704642 377 5572 10620 120.145 177.194848068447 16 0 1 8 8
471	705019 235 5572 10606 120.145 177.194424068447 8 12000000 12000000 96000000 1.152e+015
469	705254 179 5572 10606 120.145 177.194424068447 8 0 0 0 0
468	705433 195 5572 10606 120.145 177.194424068447 8 570 570 4560 2599200
462	705628 195 5568 10602 120.145 177.194424068447 8 570 570 4560 2599200
463	705823 358 5568 10606 120.145 177.194424068447 16 0 1 8 8
478	706181 254 5585 10620 120.145424 177.194848068447 8 0.000424 0.000424 0.003392 1.438208e-006
470	706435 377 5572 10620 120.145 177.194848068447 16 0 1 8 8
465	706812 358 5568 10605 120.145 177.194424068447 16 0 1 8 8
464	707170 182 5568 10602 120.145 177.194424068447 8 0 14 73 809
451	707352 19 5106 5106 115.1 115.1 1 15 15 15 225
474	707371 754 5573 10621 120.145 177.194848068447 32 0 2 32 48
450	708125 805 5106 10621 115.1 177.194848068447 31 0 3 37 79
448	708930 431 5106 10621 115.1 177.194848068447 19 0 3 42 108
449	709361 18 5106 5106 115.1 115.1 1 3 3 3 9
466	709379 414 5569 10603 120.145 177.194424068447 15 520 520 7800 4056000
458	709793 195 5563 10597 120.145 177.194424068447 8 520 520 4160 2163200
467	709988 390 5569 10603 120.145 177.194424068447 15 1 15 120 1240
483	710378 262 6097 10183 125.101 170.11 7 0.0010000000000048 0.15484865509401 0.418848655094 0.043492105984423
456	710640 31160 5562 10843 0.1 180 1800 0 122880 1351680 95630131200
455	741800 866 5562 10604 120.145 177.194424068447 33 512 512 16896 8650752
457	742666 195 5562 10596 120.145 177.194424068447 8 512 512 4096 2097152
453	742861 394 5454 10582 120.1 177.144424068447 18 0 0 0 0
452	743255 403 5454 10582 120.1 177.144424068447 18 1 18 171 2109
454	743658 403 5457 10583 120.1 177.144424068447 18 1 18 171 2109
530	744061 165 6732 10554 130.254424327547 177.144 7 540 540 3780 2041200
531	744226 165 6732 10554 130.254424327547 177.144 7 540 540 3780 2041200
516	744391 217 6709 10623 130.160424327547 177.194848136894 7 570 570 3990 2274300
541	744608 165 6739 10561 130.254424327547 177.144 7 570 570 3990 2274300
532	744773 165 6735 10557 130.254424327547 177.144 7 542 542 3794 2056348
520	744938 217 6709 10623 130.160424327547 177.194848136894 7 542 542 3794 2056348
519	745155 217 6709 10623 130.160424327547 177.194848136894 7 570 570 3990 2274300
518	745372 217 6709 10623 130.160424327547 177.194848136894 7 570 570 3990 2274300
517	745589 217 6709 10623 130.160424327547 177.194848136894 7 570 570 3990 2274300
546	745806 183 6754 10575 130.254848327547 177.144424 7 570 570 3990 2274300
545	745989 183 6754 10575 130.254848327547 177.144424 7 570 570 3990 2274300
544	746172 183 6754 10575 130.254848327547 177.144424 7 570 570 3990 2274300
542	746355 320 6739 10575 130.254424327547 177.144424 14 0 1 7 7
540	746675 200 6739 10561 130.254424327547 177.144 7 12000000 12000000 84000000 1.008e+015
538	746875 151 6739 10561 130.254424327547 177.144 7 0 0 0 0
537	747026 165 6739 10561 130.254424327547 177.144 7 570 570 3990 2274300
533	747191 165 6735 10557 130.254424327547 177.144 7 570 570 3990 2274300
534	747356 302 6735 10561 130.254424327547 177.144 14 0 1 7 7
547	747658 218 6754 10575 130.254848327547 177.144424 7 0.000424 0.000424 0.002968 1.258432e-006
539	747876 320 6739 10575 130.254424327547 177.144424 14 0 1 7 7
536	748196 302 6735 10560 130.254424327547 177.144 14 0 1 7 7
535	748498 154 6735 10557 130.254424327547 177.144 7 3 15 59 625
487	748652 19 6273 6273 127.1 127.1 1 15 15 15 225
543	748671 640 6740 10576 130.254424327547 177.144424 28 0 2 28 42
486	749311 744 6273 10622 127.1 177.194848136894 29 0 3 36 78
484	750055 374 6273 10576 127.1 177.144424 17 0 3 37 95
485	750429 18 6273 6273 127.1 127.1 1 3 3 3 9
521	750447 382 6712 10626 130.160424327547 177.194848136894 14 520 520 7280 3785600
529	750829 165 6730 10552 130.254424327547 177.144 7 520 520 3640 1892800
522	750994 359 6712 10626 130.160424327547 177.194848136894 14 1 14 105 1015
594	751353 233 7348 10627 137.145 177.194848136894 6 0.0080000000000098 0.127848308582 0.37369644547601 0.034410359079542
524	751586 31144 6713 10843 0.1 180 1800 0 122880 1187840 88919244800
523	782730 758 6713 10627 130.160424327547 177.194848136894 29 512 512 14848 7602176
528	783488 165 6729 10551 130.254424327547 177.144 7 512 512 3584 1835008
526	783653 326 6713 10507 130.160424327547 177.1 15 0 0 0 0
525	783979 332 6713 10507 130.160424327547 177.1 15 1 15 120 1240
527	784311 332 6714 10511 130.160424327547 177.1 15 1 15 120 1240
631	784643 75 7648 9442 138.192424446632 160.177 3 540 540 1620 874800
632	784718 75 7648 9442 138.192424446632 160.177 3 540 540 1620 874800
617	784793 124 7574 9244 138.153424446632 158.188425073188 4 570 570 2280 1299600
642	784917 75 7655 9449 138.192424446632 160.177 3 570 570 1710 974700
633	784992 75 7651 9445 138.192424446632 160.177 3 542 542 1626 881292
621	785067 124 7574 9244 138.153424446632 158.188425073188 4 542 542 2168 1175056
620	785191 124 7574 9244 138.153424446632 158.188425073188 4 570 570 2280 1299600
619	785315 124 7574 9244 138.153424446632 158.188425073188 4 570 570 2280 1299600
618	785439 124 7574 9244 138.153424446632 158.188425073188 4 570 570 2280 1299600
647	785563 81 7670 9465 138.192848446632 160.177424 3 570 570 1710 974700
646	785644 81 7670 9465 138.192848446632 160.177424 3 570 570 1710 974700
645	785725 81 7670 9465 138.192848446632 160.177424 3 570 570 1710 974700
643	785806 144 7655 9465 138.192424446632 160.177424 6 0 1 3 3
641	785950 90 7655 9449 138.192424446632 160.177 3 12000000 12000000 36000000 4.32e+014
639	786040 69 7655 9449 138.192424446632 160.177 3 0 0 0 0
638	786109 75 7655 9449 138.192424446632 160.177 3 570 570 1710 974700
634	786184 75 7651 9445 138.192424446632 160.177 3 570 570 1710 974700
635	786259 138 7651 9449 138.192424446632 160.177 6 0 1 3 3
648	786397 96 7670 9465 138.192848446632 160.177424 3 0.000424 0.000424 0.001272 5.39328e-007
640	786493 144 7655 9465 138.192424446632 160.177424 6 0 1 3 3
637	786637 138 7651 9448 138.192424446632 160.177 6 0 1 3 3
636	786775 70 7651 9445 138.192424446632 160.177 3 5 14 27 285
593	786845 19 7091 7091 135.1 135.1 1 15 15 15 225
644	786864 288 7656 9466 138.192424446632 160.177424 12 0 2 12 18
592	787152 394 7091 9466 135.1 160.177424 15 0 3 20 44
590	787546 198 7091 9466 135.1 160.177424 9 0 3 17 43
591	787744 18 7091 7091 135.1 135.1 1 3 3 3 9
622	787762 199 7577 9446 138.153424446632 160.177 7 520 520 3640 1892800
630	787961 75 7646 9440 138.192424446632 160.177 3 520 520 1560 811200
623	788036 185 7577 9446 138.153424446632 160.177 7 1 7 28 140
649	788221 263 7845 10438 140.171848770874 175.168 7 0.039000000000016 0.094999999999999 0.47584877087405 0.034886245876111
625	788484 31145 7578 10843 0.1 180 1800 0 122880 737280 53687091200
624	819629 470 7578 10438 138.153424446632 175.168 18 512 512 9216 4718592
629	820099 75 7645 9439 138.192424446632 160.177 3 512 512 1536 786432
627	820174 233 7578 10387 138.153424446632 175.1 11 0 0 0 0
626	820407 235 7578 10387 138.153424446632 175.1 11 1 11 66 506
628	820642 235 7579 10391 138.153424446632 175.1 11 1 11 66 506
737	820877 22 9611 9611 162.119 162.119 1 540 540 540 291600
738	820899 22 9611 9611 162.119 162.119 1 540 540 540 291600
750	820921 22 9618 9618 162.119 162.119 1 570 570 570 324900
739	820943 22 9614 9614 162.119 162.119 1 542 542 542 293764
755	820965 25 9634 9634 162.119424 162.119424 1 570 570 570 324900
754	820990 25 9634 9634 162.119424 162.119424 1 570 570 570 324900
753	821015 25 9634 9634 162.119424 162.119424 1 570 570 570 324900
751	821040 43 9618 9634 162.119 162.119424 2 0 1 1 1
749	821083 27 9618 9618 162.119 162.119 1 12000000 12000000 12000000 1.44e+014
747	821110 20 9618 9618 162.119 162.119 1 0 0 0 0
746	821130 22 9618 9618 162.119 162.119 1 570 570 570 324900
740	821152 22 9614 9614 162.119 162.119 1 570 570 570 324900
741	821174 40 9614 9618 162.119 162.119 2 0 1 1 1
756	821214 30 9634 9634 162.119424 162.119424 1 0.000424 0.000424 0.000424 1.79776e-007
748	821244 43 9618 9634 162.119 162.119424 2 0 1 1 1
743	821287 40 9614 9617 162.119 162.119 2 0 1 1 1
742	821327 20 9614 9614 162.119 162.119 1 0 0 0 0
653	821347 19 8402 8402 147.1 147.1 1 15 15 15 225
752	821366 86 9619 9635 162.119 162.119424 4 0 2 4 6
652	821452 61 8402 9635 147.1 162.119424 3 0 1 2 2
650	821513 97 8402 9635 147.1 162.119424 5 0 3 7 17
651	821610 18 8402 8402 147.1 147.1 1 3 3 3 9
744	821628 22 9615 9615 162.119 162.119 1 520 520 520 270400
736	821650 22 9609 9609 162.119 162.119 1 520 520 520 270400
745	821672 20 9615 9615 162.119 162.119 1 1 1 1 1
669	821692 182 8872 10595 152.175 177.175 5 0.034999999999997 0.074999999999989 0.31599999999997 0.021067999999996
668	821874 31095 8872 10843 0.1 180 1800 0 81920 286720 15099494400
667	852969 156 8872 10595 152.175 177.175 7 512 512 3584 1835008
735	853125 22 9608 9608 162.119 162.119 1 512 512 512 262144
665	853147 110 8865 10508 152.1 177.1 6 0 0 0 0
664	853257 110 8865 10508 152.1 177.1 6 1 6 21 91
666	853367 110 8869 10512 152.1 177.1 6 1 6 21 91
681	853477 44 9046 10200 156.15 171.112 2 540 540 1080 583200
682	853521 44 9046 10200 156.15 171.112 2 540 540 1080 583200
757	853565 32 10466 10466 175.192424790819 175.192424790819 1 570 570 570 324900
694	853597 44 9053 10207 156.15 171.112 2 570 570 1140 649800
683	853641 44 9049 10203 156.15 171.112 2 542 542 1084 587528
761	853685 32 10466 10466 175.192424790819 175.192424790819 1 542 542 542 293764
760	853717 32 10466 10466 175.192424790819 175.192424790819 1 570 570 570 324900
759	853749 32 10466 10466 175.192424790819 175.192424790819 1 570 570 570 324900
758	853781 32 10466 10466 175.192424790819 175.192424790819 1 570 570 570 324900
699	853813 51 9069 10221 156.150424 171.112424 2 570 570 1140 649800
698	853864 51 9069 10221 156.150424 171.112424 2 570 570 1140 649800
697	853915 51 9069 10221 156.150424 171.112424 2 570 570 1140 649800
695	853966 87 9053 10221 156.15 171.112424 4 0 1 2 2
693	854053 54 9053 10207 156.15 171.112 2 12000000 12000000 24000000 2.88e+014
691	854107 40 9053 10207 156.15 171.112 2 0 0 0 0
690	854147 44 9053 10207 156.15 171.112 2 570 570 1140 649800
684	854191 44 9049 10203 156.15 171.112 2 570 570 1140 649800
685	854235 80 9049 10207 156.15 171.112 4 0 1 2 2
700	854315 61 9069 10221 156.150424 171.112424 2 0.000424 0.000424 0.000848 3.59552e-007
692	854376 87 9053 10221 156.15 171.112424 4 0 1 2 2
687	854463 80 9049 10206 156.15 171.112 4 0 1 2 2
686	854543 40 9049 10203 156.15 171.112 2 4 9 13 97
657	854583 19 8742 8742 151.1 151.1 1 15 15 15 225
696	854602 174 9054 10222 156.15 171.112424 8 0 2 8 12
656	854776 165 8742 10465 151.1 175.192424790819 7 0 3 7 13
654	854941 141 8742 10222 151.1 171.112424 7 0 3 12 30
655	855082 18 8742 8742 151.1 151.1 1 3 3 3 9
688	855100 76 9050 10469 156.15 175.192424790819 3 520 520 1560 811200
680	855176 44 9044 10198 156.15 171.112 2 520 520 1040 540800
689	855220 70 9050 10469 156.15 175.192424790819 3 1 3 6 14
734	855290 109 9590 10496 161.107 176.175 3 0.007000000000005 0.074999999999989 0.10900000000001 0.0064029999999992
678	855399 31109 9043 10843 0.1 180 1800 0 81920 368640 21810380800
677	886508 219 9043 10496 156.15 176.175 9 512 512 4608 2359296
679	886727 44 9043 10197 156.15 171.112 2 512 512 1024 524288
675	886771 122 8991 10493 156.1 176.1 6 0 0 0 0
674	886893 122 8991 10493 156.1 176.1 6 1 6 21 91
676	887015 122 8994 10495 156.1 176.1 6 1 6 21 91
715	887137 76 9267 10442 158.275424517127 175.192 3 540 540 1620 874800
716	887213 76 9267 10442 158.275424517127 175.192 3 540 540 1620 874800
701	887289 93 9237 10224 158.188424517127 171.11242475755 3 570 570 1710 974700
726	887382 76 9274 10449 158.275424517127 175.192 3 570 570 1710 974700
717	887458 76 9270 10445 158.275424517127 175.192 3 542 542 1626 881292
705	887534 93 9237 10224 158.188424517127 171.11242475755 3 542 542 1626 881292
704	887627 93 9237 10224 158.188424517127 171.11242475755 3 570 570 1710 974700
703	887720 93 9237 10224 158.188424517127 171.11242475755 3 570 570 1710 974700
702	887813 93 9237 10224 158.188424517127 171.11242475755 3 570 570 1710 974700
731	887906 82 9290 10463 158.275848517127 175.192424 3 570 570 1710 974700
730	887988 82 9290 10463 158.275848517127 175.192424 3 570 570 1710 974700
729	888070 82 9290 10463 158.275848517127 175.192424 3 570 570 1710 974700
727	888152 146 9274 10463 158.275424517127 175.192424 6 0 1 3 3
725	888298 91 9274 10449 158.275424517127 175.192 3 12000000 12000000 36000000 4.32e+014
723	888389 70 9274 10449 158.275424517127 175.192 3 0 0 0 0
722	888459 76 9274 10449 158.275424517127 175.192 3 570 570 1710 974700
718	888535 76 9270 10445 158.275424517127 175.192 3 570 570 1710 974700
719	888611 140 9270 10449 158.275424517127 175.192 6 0 1 3 3
732	888751 97 9290 10463 158.275848517127 175.192424 3 0.000424 0.000424 0.001272 5.39328e-007
724	888848 146 9274 10463 158.275424517127 175.192424 6 0 1 3 3
721	888994 140 9270 10448 158.275424517127 175.192 6 0 1 3 3
720	889134 71 9270 10445 158.275424517127 175.192 3 0 14 20 232
673	889205 19 8973 8973 155.1 155.1 1 15 15 15 225
728	889224 292 9275 10464 158.275424517127 175.192424 12 0 2 12 18
672	889516 338 8973 10464 155.1 175.192424 13 0 3 16 34
670	889854 200 8973 10464 155.1 175.192424 9 0 3 17 43
671	890054 18 8973 8973 155.1 155.1 1 3 3 3 9
706	890072 169 9240 10446 158.188424517127 175.192 6 520 520 3120 1622400
714	890241 76 9265 10440 158.275424517127 175.192 3 520 520 1560 811200
707	890317 157 9240 10446 158.188424517127 175.192 6 1 6 21 91
733	890474 115 9563 10182 160.241849124494 170.107 3 0.007000000000005 0.141849124494 0.194849124494 0.022286174119714
709	890589 31123 9241 10843 0.1 180 1800 0 81920 491520 33554432000
708	921712 321 9241 10447 158.188424517127 175.192 12 512 512 6144 3145728
713	922033 76 9264 10439 158.275424517127 175.192 3 512 512 1536 786432
711	922109 132 9241 10388 158.188424517127 175.1 6 0 0 0 0
710	922241 132 9241 10388 158.188424517127 175.1 6 1 6 21 91
712	922373 132 9242 10392 158.188424517127 175.1 6 1 6 21 91
153	922505 559 883 9766 43.163 163.111 21 540 540 11340 6123600
154	923064 559 883 9766 43.163 163.111 21 540 540 11340 6123600
178	923623 1067 955 8922 45.123424262563 153.118425042267 35 570 570 19950 11371500
166	924690 559 890 9773 43.163 163.111 21 570 570 11970 6822900
155	925249 559 886 9769 43.163 163.111 21 542 542 11382 6169044
182	925808 1067 955 8922 45.123424262563 153.118425042267 35 542 542 18970 10281740
181	926875 1067 955 8922 45.123424262563 153.118425042267 35 570 570 19950 11371500
180	927942 1067 955 8922 45.123424262563 153.118425042267 35 570 570 19950 11371500
179	929009 1067 955 8922 45.123424262563 153.118425042267 35 570 570 19950 11371500
171	930076 587 897 9788 43.163424 163.111424 21 570 570 11970 6822900
170	930663 587 897 9788 43.163424 163.111424 21 570 570 11970 6822900
169	931250 587 897 9788 43.163424 163.111424 21 570 570 11970 6822900
167	931837 1062 890 9788 43.163 163.111424 42 0 1 21 21
165	932899 664 890 9773 43.163 163.111 21 12000000 12000000 252000000 3.024e+015
163	933563 517 890 9773 43.163 163.111 21 0 0 0 0
162	934080 559 890 9773 43.163 163.111 21 570 570 11970 6822900
156	934639 559 886 9769 43.163 163.111 21 570 570 11970 6822900
157	935198 1034 886 9773 43.163 163.111 42 0 1 21 21
172	936232 692 897 9788 43.163424 163.111424 21 0.000424 0.000424 0.008904 3.775296e-006
164	936924 1062 890 9788 43.163 163.111424 42 0 1 21 21
159	937986 1034 886 9772 43.163 163.111 42 0 1 21 21
158	939020 525 886 9769 43.163 163.111 21 1 15 145 1539
98	939545 16 601 601 33.1 33.1 1 15 15 15 225
168	939561 2124 891 9789 43.163 163.111424 84 0 2 84 126
97	941685 2959 601 9789 33.1 163.111424 113 0 3 162 372
95	944644 1065 601 9789 33.1 163.111424 45 0 3 107 277
96	945709 15 601 601 33.1 33.1 1 3 3 3 9
160	945724 1626 887 9770 43.163 163.111 56 520 520 29120 15142400
152	947350 559 881 9764 43.163 163.111 21 520 520 10920 5678400
161	947909 1561 887 9770 43.163 163.111 56 1 56 1596 60116
130	949470 846 755 10693 38.193 178.189 23 0.0040000000000049 0.16585002209601 1.1985484611641 0.10018381198193
129	950316 30904 755 10843 0.1 180 1800 0 245760 4423680 449629388800
128	981220 2950 755 10693 38.193 178.189 108 512 512 55296 28311552
151	984170 559 880 9763 43.163 163.111 21 512 512 10752 5505024
126	984729 1163 752 10648 38.1 178.1 52 0 0 0 0
125	985892 1206 752 10648 38.1 178.1 52 1 52 1378 48230
127	987098 1206 754 10652 38.1 178.1 52 1 52 1378 48230

