version 2
run General-0-20220422-21:24:42-8712
attr configname General
attr datetime 20220422-21:24:42
attr experiment General
attr inifile omnetpp.ini
attr iterationvars ""
attr iterationvarsf ""
attr measurement ""
attr network Scenario
attr processid 8712
attr repetition 0
attr replication #0
attr resultdir results
attr runnumber 0
attr seedset 0
param *.node[*].numApps 1
param *.node[*].app[0].typename "\"v2v_caching.veins_inet.VeinsInetSampleApplication\""
param *.node[*].app[0].interface "\"wlan0\""
param *.node[*].wlan[0].opMode "\"p\""
param *.node[*].wlan[0].radio.typename "\"Ieee80211DimensionalRadio\""
param *.node[*].wlan[0].radio.bandName "\"5.9 GHz\""
param *.node[*].wlan[0].radio.channelNumber 3
param *.node[*].wlan[0].radio.transmitter.power 20mW
param *.node[*].wlan[0].radio.bandwidth "10 MHz"
param *.node[*].wlan[*].radio.antenna.mobility.typename "\"AttachedMobility\""
param *.node[*].wlan[*].radio.antenna.mobility.mobilityModule "\"^.^.^.^.mobility\""
param *.node[*].wlan[*].radio.antenna.mobility.offsetX -2.5m
param *.node[*].wlan[*].radio.antenna.mobility.offsetZ 1.5m
param *.node[*].wlan[*].radio.antenna.mobility.constraintAreaMinX 0m
param *.node[*].wlan[*].radio.antenna.mobility.constraintAreaMaxX 0m
param *.node[*].wlan[*].radio.antenna.mobility.constraintAreaMinY 0m
param *.node[*].wlan[*].radio.antenna.mobility.constraintAreaMaxY 0m
param *.node[*].wlan[*].radio.antenna.mobility.constraintAreaMinZ 0m
param *.node[*].wlan[*].radio.antenna.mobility.constraintAreaMaxZ 0m
param *.node[*].ipv4.configurator.typename "\"HostAutoConfigurator\""
param *.node[*].ipv4.configurator.interfaces "\"wlan0\""
param *.node[*].ipv4.configurator.mcastGroups "\"224.0.0.1\""
param *.node[*].mobility.typename "\"VeinsInetMobility\""
param *.manager.updateInterval 0.1s
param *.manager.host "\"localhost\""
param *.manager.port 9999
param *.manager.autoShutdown true
param *.manager.launchConfig "xmldoc(\"a14.launchd.xml\")"
param *.manager.moduleType "\"v2v_caching.veins_inet.VeinsInetCar\""
param *.radioMedium.obstacleLoss.typename "\"IdealObstacleLoss\""

vector 0 Scenario.node[0].wlan[0].radio radioMode:vector ETV
attr interpolationmode sample-hold
attr source radioModeChanged
attr title "Radio mode, vector"
vector 1 Scenario.node[0].wlan[0].radio radioChannel:vector ETV
attr interpolationmode sample-hold
attr source radioChannelChanged
attr title "Radio channel, vector"
vector 2 Scenario.node[0].wlan[0].radio receptionState:vector ETV
attr interpolationmode sample-hold
attr source receptionStateChanged
attr title "Radio reception state, vector"
vector 3 Scenario.node[0].wlan[0].mac.dcf.recoveryProcedure contentionWindowChanged:vector ETV
attr interpolationmode sample-hold
attr title "contention window, vector"
vector 4 Scenario.node[0].cache requestsReceived:vector ETV
attr interpolationmode none
attr source receive
attr title "requests received, vector"
vector 5 Scenario.node[0].cache hitRate:vector ETV
attr interpolationmode none
attr source hitRate
attr title "hit rate, vector"
vector 6 Scenario.node[1].wlan[0].radio radioMode:vector ETV
attr interpolationmode sample-hold
attr source radioModeChanged
attr title "Radio mode, vector"
vector 7 Scenario.node[1].wlan[0].radio radioChannel:vector ETV
attr interpolationmode sample-hold
attr source radioChannelChanged
attr title "Radio channel, vector"
vector 8 Scenario.node[1].wlan[0].radio receptionState:vector ETV
attr interpolationmode sample-hold
attr source receptionStateChanged
attr title "Radio reception state, vector"
vector 9 Scenario.node[1].wlan[0].mac.dcf.recoveryProcedure contentionWindowChanged:vector ETV
attr interpolationmode sample-hold
attr title "contention window, vector"
vector 10 Scenario.node[0].dataServer requestsReceived:vector ETV
attr interpolationmode none
attr source receive
attr title "requests received, vector"
vector 11 Scenario.node[0].app[0] packetReceived:vector(packetBytes) ETV
attr interpolationmode none
attr source packetReceived
attr title "packets received, vector(packetBytes)"
vector 12 Scenario.node[0].app[0] throughput:vector ETV
attr source throughput(packetReceived)
attr title "throughput, vector"
attr unit bps
vector 13 Scenario.node[0].app[0] packetSent:vector(packetBytes) ETV
attr interpolationmode none
attr source packetSent
attr title "packets sent, vector(packetBytes)"
vector 14 Scenario.node[0].udp packetSent:vector(packetBytes) ETV
attr interpolationmode none
attr source packetSent
attr title "packets sent, vector(packetBytes)"
vector 15 Scenario.node[0].lo[0].lo rcvdPkFromHl:vector(packetBytes) ETV
attr interpolationmode none
attr source packetReceivedFromUpper
attr title "packets received from higher layer, vector(packetBytes)"
vector 16 Scenario.node[0].lo[0].lo passedUpPk:vector(packetBytes) ETV
attr interpolationmode none
attr source packetSentToUpper
attr title "packets passed to higher layer, vector(packetBytes)"
vector 17 Scenario.node[0].wlan[0].mac packetReceivedFromUpper:vector(packetBytes) ETV
attr interpolationmode none
attr title "packets received from upper layer, vector(packetBytes)"
vector 18 Scenario.node[0].wlan[0].mac.dcf.channelAccess.pendingQueue packetPushed:vector(packetBytes) ETV
attr interpolationmode none
attr title "packet pushed, vector(packetBytes)"
vector 19 Scenario.node[0].wlan[0].mac.dcf.channelAccess.pendingQueue queueLength:vector ETV
attr interpolationmode sample-hold
attr source "count(packetPushed) - count(packetPopped) - count(packetRemoved) - count(packetDropped)"
attr title "queue length, vector"
vector 20 Scenario.node[0].wlan[0].mac.dcf.channelAccess.contention backoffPeriodGenerated:vector ETV
attr interpolationmode none
attr title "backoff periods, vector"
vector 21 Scenario.node[0].wlan[0].mac.dcf.channelAccess.contention backoffActive:vector ETV
attr interpolationmode sample-hold
attr source count(backoffStarted)-count(backoffStopped)
attr title "backoff active, vector"
vector 22 Scenario.node[0].udp packetReceived:vector(packetBytes) ETV
attr interpolationmode none
attr source packetReceived
attr title "packets received, vector(packetBytes)"
vector 23 Scenario.node[0].udp passedUpPk:vector(count) ETV
attr interpolationmode none
attr source packetSentToUpper
attr title "packets passed up, vector(count)"
vector 24 Scenario.node[0].wlan[0].mac.dcf.channelAccess.pendingQueue packetPopped:vector(packetBytes) ETV
attr interpolationmode none
attr title "packet popped, vector(packetBytes)"
vector 25 Scenario.node[0].wlan[0].mac.dcf.channelAccess.pendingQueue queueingTime:vector ETV
attr interpolationmode none
attr source queueingTime(packetPopped)
attr title "queueing times, vector"
attr unit s
vector 26 Scenario.node[0].wlan[0].mac.dcf.channelAccess.inProgressFrames queueLength:vector ETV
attr interpolationmode sample-hold
attr source "count(packetEnqueued) - count(packetDequeued)"
attr title "queue length, vector"
vector 27 Scenario.node[0].wlan[0].mac.dcf datarateSelected:vector ETV
attr interpolationmode none
attr title "datarates selected, vector"
vector 28 Scenario.node[0].wlan[0].mac packetSentToLower:vector(packetBytes) ETV
attr interpolationmode none
attr title "packets sent to lower layer, vector(packetBytes)"
vector 29 Scenario.node[0].wlan[0].mac.dcf frameSequenceActive:vector ETV
attr interpolationmode sample-hold
attr source count(frameSequenceStarted)-count(frameSequenceFinished)
attr title "frame sequence active, vector"
vector 30 Scenario.node[0].wlan[0].radio transmissionState:vector ETV
attr interpolationmode sample-hold
attr source transmissionStateChanged
attr title "Radio transmission state, vector"
vector 31 Scenario.node[0].wlan[0].mac.dcf packetSentToPeer:vector(packetBytes) ETV
attr interpolationmode none
attr title "packets sent, vector(packetBytes)"
vector 32 Scenario.node[0].wlan[0].mac.dcf packetSentToPeerMulticast:vector(packetBytes) ETV
attr interpolationmode none
attr source ieee80211Multicast(packetSentToPeer)
attr title "packets sent: multicast, vector(packetBytes)"
vector 33 Scenario.node[0].wlan[0].mac.dcf packetSentToPeerWithoutRetry:vector(packetBytes) ETV
attr interpolationmode none
attr source ieee80211NotRetry(packetSentToPeer)
attr title "packets sent: without retry, vector(packetBytes)"
vector 34 Scenario.node[0].wlan[0].mac.dcf.channelAccess.inProgressFrames queueingTime:vector ETV
attr interpolationmode none
attr source queueingTime(packetDequeued)
attr title "queueing times, vector"
vector 35 Scenario.node[1].cache requestsReceived:vector ETV
attr interpolationmode none
attr source receive
attr title "requests received, vector"
vector 36 Scenario.node[1].cache hitRate:vector ETV
attr interpolationmode none
attr source hitRate
attr title "hit rate, vector"
vector 37 Scenario.node[1].dataServer requestsReceived:vector ETV
attr interpolationmode none
attr source receive
attr title "requests received, vector"
vector 38 Scenario.node[1].app[0] packetReceived:vector(packetBytes) ETV
attr interpolationmode none
attr source packetReceived
attr title "packets received, vector(packetBytes)"
vector 39 Scenario.node[1].app[0] throughput:vector ETV
attr source throughput(packetReceived)
attr title "throughput, vector"
attr unit bps
vector 40 Scenario.node[1].app[0] packetSent:vector(packetBytes) ETV
attr interpolationmode none
attr source packetSent
attr title "packets sent, vector(packetBytes)"
vector 41 Scenario.node[1].udp packetSent:vector(packetBytes) ETV
attr interpolationmode none
attr source packetSent
attr title "packets sent, vector(packetBytes)"
vector 42 Scenario.node[1].lo[0].lo rcvdPkFromHl:vector(packetBytes) ETV
attr interpolationmode none
attr source packetReceivedFromUpper
attr title "packets received from higher layer, vector(packetBytes)"
vector 43 Scenario.node[1].lo[0].lo passedUpPk:vector(packetBytes) ETV
attr interpolationmode none
attr source packetSentToUpper
attr title "packets passed to higher layer, vector(packetBytes)"
vector 44 Scenario.node[1].wlan[0].mac packetReceivedFromUpper:vector(packetBytes) ETV
attr interpolationmode none
attr title "packets received from upper layer, vector(packetBytes)"
vector 45 Scenario.node[1].wlan[0].mac.dcf.channelAccess.pendingQueue packetPushed:vector(packetBytes) ETV
attr interpolationmode none
attr title "packet pushed, vector(packetBytes)"
vector 46 Scenario.node[1].wlan[0].mac.dcf.channelAccess.pendingQueue queueLength:vector ETV
attr interpolationmode sample-hold
attr source "count(packetPushed) - count(packetPopped) - count(packetRemoved) - count(packetDropped)"
attr title "queue length, vector"
vector 47 Scenario.node[1].wlan[0].mac.dcf.channelAccess.contention backoffPeriodGenerated:vector ETV
attr interpolationmode none
attr title "backoff periods, vector"
vector 48 Scenario.node[1].wlan[0].mac.dcf.channelAccess.contention backoffActive:vector ETV
attr interpolationmode sample-hold
attr source count(backoffStarted)-count(backoffStopped)
attr title "backoff active, vector"
vector 49 Scenario.node[1].udp packetReceived:vector(packetBytes) ETV
attr interpolationmode none
attr source packetReceived
attr title "packets received, vector(packetBytes)"
vector 50 Scenario.node[1].udp passedUpPk:vector(count) ETV
attr interpolationmode none
attr source packetSentToUpper
attr title "packets passed up, vector(count)"
vector 51 Scenario.node[1].wlan[0].mac.dcf.channelAccess.pendingQueue packetPopped:vector(packetBytes) ETV
attr interpolationmode none
attr title "packet popped, vector(packetBytes)"
vector 52 Scenario.node[1].wlan[0].mac.dcf.channelAccess.pendingQueue queueingTime:vector ETV
attr interpolationmode none
attr source queueingTime(packetPopped)
attr title "queueing times, vector"
attr unit s
vector 53 Scenario.node[1].wlan[0].mac.dcf.channelAccess.inProgressFrames queueLength:vector ETV
attr interpolationmode sample-hold
attr source "count(packetEnqueued) - count(packetDequeued)"
attr title "queue length, vector"
vector 54 Scenario.node[1].wlan[0].mac.dcf datarateSelected:vector ETV
attr interpolationmode none
attr title "datarates selected, vector"
vector 55 Scenario.node[1].wlan[0].mac packetSentToLower:vector(packetBytes) ETV
attr interpolationmode none
attr title "packets sent to lower layer, vector(packetBytes)"
vector 56 Scenario.node[1].wlan[0].mac.dcf frameSequenceActive:vector ETV
attr interpolationmode sample-hold
attr source count(frameSequenceStarted)-count(frameSequenceFinished)
attr title "frame sequence active, vector"
vector 57 Scenario.node[1].wlan[0].radio transmissionState:vector ETV
attr interpolationmode sample-hold
attr source transmissionStateChanged
attr title "Radio transmission state, vector"
vector 58 Scenario.node[1].wlan[0].mac.dcf packetSentToPeer:vector(packetBytes) ETV
attr interpolationmode none
attr title "packets sent, vector(packetBytes)"
vector 59 Scenario.node[1].wlan[0].mac.dcf packetSentToPeerMulticast:vector(packetBytes) ETV
attr interpolationmode none
attr source ieee80211Multicast(packetSentToPeer)
attr title "packets sent: multicast, vector(packetBytes)"
vector 60 Scenario.node[1].wlan[0].mac.dcf packetSentToPeerWithoutRetry:vector(packetBytes) ETV
attr interpolationmode none
attr source ieee80211NotRetry(packetSentToPeer)
attr title "packets sent: without retry, vector(packetBytes)"
vector 61 Scenario.node[1].wlan[0].mac.dcf.channelAccess.inProgressFrames queueingTime:vector ETV
attr interpolationmode none
attr source queueingTime(packetDequeued)
attr title "queueing times, vector"
vector 62 Scenario.node[2].wlan[0].radio radioMode:vector ETV
attr interpolationmode sample-hold
attr source radioModeChanged
attr title "Radio mode, vector"
vector 63 Scenario.node[2].wlan[0].radio radioChannel:vector ETV
attr interpolationmode sample-hold
attr source radioChannelChanged
attr title "Radio channel, vector"
vector 64 Scenario.node[2].wlan[0].radio receptionState:vector ETV
attr interpolationmode sample-hold
attr source receptionStateChanged
attr title "Radio reception state, vector"
vector 65 Scenario.node[2].wlan[0].mac.dcf.recoveryProcedure contentionWindowChanged:vector ETV
attr interpolationmode sample-hold
attr title "contention window, vector"
vector 66 Scenario.node[1].app[0] RequestReceiveTime:vector ETV
attr interpolationmode none
attr source receiveTime
attr title "request time, vector"
vector 67 Scenario.node[2].cache requestsReceived:vector ETV
attr interpolationmode none
attr source receive
attr title "requests received, vector"
vector 68 Scenario.node[2].cache hitRate:vector ETV
attr interpolationmode none
attr source hitRate
attr title "hit rate, vector"
vector 69 Scenario.node[2].dataServer requestsReceived:vector ETV
attr interpolationmode none
attr source receive
attr title "requests received, vector"
vector 70 Scenario.node[2].app[0] packetReceived:vector(packetBytes) ETV
attr interpolationmode none
attr source packetReceived
attr title "packets received, vector(packetBytes)"
vector 71 Scenario.node[2].app[0] throughput:vector ETV
attr source throughput(packetReceived)
attr title "throughput, vector"
attr unit bps
vector 72 Scenario.node[2].app[0] packetSent:vector(packetBytes) ETV
attr interpolationmode none
attr source packetSent
attr title "packets sent, vector(packetBytes)"
vector 73 Scenario.node[2].udp packetSent:vector(packetBytes) ETV
attr interpolationmode none
attr source packetSent
attr title "packets sent, vector(packetBytes)"
vector 74 Scenario.node[2].lo[0].lo rcvdPkFromHl:vector(packetBytes) ETV
attr interpolationmode none
attr source packetReceivedFromUpper
attr title "packets received from higher layer, vector(packetBytes)"
vector 75 Scenario.node[2].lo[0].lo passedUpPk:vector(packetBytes) ETV
attr interpolationmode none
attr source packetSentToUpper
attr title "packets passed to higher layer, vector(packetBytes)"
vector 76 Scenario.node[2].wlan[0].mac packetReceivedFromUpper:vector(packetBytes) ETV
attr interpolationmode none
attr title "packets received from upper layer, vector(packetBytes)"
vector 77 Scenario.node[2].wlan[0].mac.dcf.channelAccess.pendingQueue packetPushed:vector(packetBytes) ETV
attr interpolationmode none
attr title "packet pushed, vector(packetBytes)"
vector 78 Scenario.node[2].wlan[0].mac.dcf.channelAccess.pendingQueue queueLength:vector ETV
attr interpolationmode sample-hold
attr source "count(packetPushed) - count(packetPopped) - count(packetRemoved) - count(packetDropped)"
attr title "queue length, vector"
vector 79 Scenario.node[2].wlan[0].mac.dcf.channelAccess.contention backoffPeriodGenerated:vector ETV
attr interpolationmode none
attr title "backoff periods, vector"
vector 80 Scenario.node[2].wlan[0].mac.dcf.channelAccess.contention backoffActive:vector ETV
attr interpolationmode sample-hold
attr source count(backoffStarted)-count(backoffStopped)
attr title "backoff active, vector"
vector 81 Scenario.node[2].udp packetReceived:vector(packetBytes) ETV
attr interpolationmode none
attr source packetReceived
attr title "packets received, vector(packetBytes)"
vector 82 Scenario.node[2].udp passedUpPk:vector(count) ETV
attr interpolationmode none
attr source packetSentToUpper
attr title "packets passed up, vector(count)"
vector 83 Scenario.node[2].wlan[0].mac.dcf.channelAccess.pendingQueue packetPopped:vector(packetBytes) ETV
attr interpolationmode none
attr title "packet popped, vector(packetBytes)"
vector 84 Scenario.node[2].wlan[0].mac.dcf.channelAccess.pendingQueue queueingTime:vector ETV
attr interpolationmode none
attr source queueingTime(packetPopped)
attr title "queueing times, vector"
attr unit s
vector 85 Scenario.node[2].wlan[0].mac.dcf.channelAccess.inProgressFrames queueLength:vector ETV
attr interpolationmode sample-hold
attr source "count(packetEnqueued) - count(packetDequeued)"
attr title "queue length, vector"
vector 86 Scenario.node[2].wlan[0].mac.dcf datarateSelected:vector ETV
attr interpolationmode none
attr title "datarates selected, vector"
vector 87 Scenario.node[2].wlan[0].mac packetSentToLower:vector(packetBytes) ETV
attr interpolationmode none
attr title "packets sent to lower layer, vector(packetBytes)"
vector 88 Scenario.node[2].wlan[0].mac.dcf frameSequenceActive:vector ETV
attr interpolationmode sample-hold
attr source count(frameSequenceStarted)-count(frameSequenceFinished)
attr title "frame sequence active, vector"
vector 89 Scenario.node[2].wlan[0].radio transmissionState:vector ETV
attr interpolationmode sample-hold
attr source transmissionStateChanged
attr title "Radio transmission state, vector"
vector 90 Scenario.node[2].wlan[0].mac.dcf packetSentToPeer:vector(packetBytes) ETV
attr interpolationmode none
attr title "packets sent, vector(packetBytes)"
vector 91 Scenario.node[2].wlan[0].mac.dcf packetSentToPeerMulticast:vector(packetBytes) ETV
attr interpolationmode none
attr source ieee80211Multicast(packetSentToPeer)
attr title "packets sent: multicast, vector(packetBytes)"
vector 92 Scenario.node[2].wlan[0].mac.dcf packetSentToPeerWithoutRetry:vector(packetBytes) ETV
attr interpolationmode none
attr source ieee80211NotRetry(packetSentToPeer)
attr title "packets sent: without retry, vector(packetBytes)"
vector 93 Scenario.node[2].wlan[0].mac.dcf.channelAccess.inProgressFrames queueingTime:vector ETV
attr interpolationmode none
attr source queueingTime(packetDequeued)
attr title "queueing times, vector"
vector 94 Scenario.node[2].app[0] RequestReceiveTime:vector ETV
attr interpolationmode none
attr source receiveTime
attr title "request time, vector"
vector 95 Scenario.node[3].wlan[0].radio radioMode:vector ETV
attr interpolationmode sample-hold
attr source radioModeChanged
attr title "Radio mode, vector"
vector 96 Scenario.node[3].wlan[0].radio radioChannel:vector ETV
attr interpolationmode sample-hold
attr source radioChannelChanged
attr title "Radio channel, vector"
vector 97 Scenario.node[3].wlan[0].radio receptionState:vector ETV
attr interpolationmode sample-hold
attr source receptionStateChanged
attr title "Radio reception state, vector"
vector 98 Scenario.node[3].wlan[0].mac.dcf.recoveryProcedure contentionWindowChanged:vector ETV
attr interpolationmode sample-hold
attr title "contention window, vector"
vector 99 Scenario.node[2].wlan[0].mac packetReceivedFromLower:vector(packetBytes) ETV
attr interpolationmode none
attr title "packets received from lower layer, vector(packetBytes)"
vector 100 Scenario.node[2].wlan[0].mac.dcf packetReceivedFromPeer:vector(packetBytes) ETV
attr interpolationmode none
attr title "packets received, vector(packetBytes)"
vector 101 Scenario.node[2].wlan[0].mac.dcf packetReceivedFromPeerMulticast:vector(packetBytes) ETV
attr interpolationmode none
attr source ieee80211Multicast(packetReceivedFromPeer)
attr title "packets received: multicast, vector(packetBytes)"
vector 102 Scenario.node[2].wlan[0].mac.dcf packetReceivedFromPeerWithoutRetry:vector(packetBytes) ETV
attr interpolationmode none
attr source ieee80211NotRetry(packetReceivedFromPeer)
attr title "packets received: without retry, vector(packetBytes)"
vector 103 Scenario.node[2].wlan[0].mac packetSentToUpper:vector(packetBytes) ETV
attr interpolationmode none
attr title "packets sent to upper layer, vector(packetBytes)"
vector 104 Scenario.node[4].wlan[0].radio radioMode:vector ETV
attr interpolationmode sample-hold
attr source radioModeChanged
attr title "Radio mode, vector"
vector 105 Scenario.node[4].wlan[0].radio radioChannel:vector ETV
attr interpolationmode sample-hold
attr source radioChannelChanged
attr title "Radio channel, vector"
vector 106 Scenario.node[4].wlan[0].radio receptionState:vector ETV
attr interpolationmode sample-hold
attr source receptionStateChanged
attr title "Radio reception state, vector"
vector 107 Scenario.node[4].wlan[0].mac.dcf.recoveryProcedure contentionWindowChanged:vector ETV
attr interpolationmode sample-hold
attr title "contention window, vector"
vector 108 Scenario.node[4].wlan[0].mac packetReceivedFromLower:vector(packetBytes) ETV
attr interpolationmode none
attr title "packets received from lower layer, vector(packetBytes)"
vector 109 Scenario.node[4].wlan[0].mac.dcf packetReceivedFromPeer:vector(packetBytes) ETV
attr interpolationmode none
attr title "packets received, vector(packetBytes)"
vector 110 Scenario.node[4].wlan[0].mac.dcf packetReceivedFromPeerMulticast:vector(packetBytes) ETV
attr interpolationmode none
attr source ieee80211Multicast(packetReceivedFromPeer)
attr title "packets received: multicast, vector(packetBytes)"
vector 111 Scenario.node[4].wlan[0].mac.dcf packetReceivedFromPeerWithoutRetry:vector(packetBytes) ETV
attr interpolationmode none
attr source ieee80211NotRetry(packetReceivedFromPeer)
attr title "packets received: without retry, vector(packetBytes)"
vector 112 Scenario.node[4].wlan[0].mac packetSentToUpper:vector(packetBytes) ETV
attr interpolationmode none
attr title "packets sent to upper layer, vector(packetBytes)"
vector 113 Scenario.node[4].udp packetReceived:vector(packetBytes) ETV
attr interpolationmode none
attr source packetReceived
attr title "packets received, vector(packetBytes)"
vector 114 Scenario.node[4].udp passedUpPk:vector(count) ETV
attr interpolationmode none
attr source packetSentToUpper
attr title "packets passed up, vector(count)"
vector 115 Scenario.node[4].app[0] packetReceived:vector(packetBytes) ETV
attr interpolationmode none
attr source packetReceived
attr title "packets received, vector(packetBytes)"
vector 116 Scenario.node[4].app[0] throughput:vector ETV
attr source throughput(packetReceived)
attr title "throughput, vector"
attr unit bps
vector 117 Scenario.node[4].cache requestsReceived:vector ETV
attr interpolationmode none
attr source receive
attr title "requests received, vector"
vector 118 Scenario.node[4].cache hitRate:vector ETV
attr interpolationmode none
attr source hitRate
attr title "hit rate, vector"
vector 119 Scenario.node[4].dataServer requestsReceived:vector ETV
attr interpolationmode none
attr source receive
attr title "requests received, vector"
vector 120 Scenario.node[0].wlan[0].mac packetReceivedFromLower:vector(packetBytes) ETV
attr interpolationmode none
attr title "packets received from lower layer, vector(packetBytes)"
vector 121 Scenario.node[0].wlan[0].mac.dcf packetReceivedFromPeer:vector(packetBytes) ETV
attr interpolationmode none
attr title "packets received, vector(packetBytes)"
vector 122 Scenario.node[0].wlan[0].mac.dcf packetReceivedFromPeerMulticast:vector(packetBytes) ETV
attr interpolationmode none
attr source ieee80211Multicast(packetReceivedFromPeer)
attr title "packets received: multicast, vector(packetBytes)"
vector 123 Scenario.node[0].wlan[0].mac.dcf packetReceivedFromPeerWithoutRetry:vector(packetBytes) ETV
attr interpolationmode none
attr source ieee80211NotRetry(packetReceivedFromPeer)
attr title "packets received: without retry, vector(packetBytes)"
vector 124 Scenario.node[0].wlan[0].mac packetSentToUpper:vector(packetBytes) ETV
attr interpolationmode none
attr title "packets sent to upper layer, vector(packetBytes)"
vector 125 Scenario.node[3].cache requestsReceived:vector ETV
attr interpolationmode none
attr source receive
attr title "requests received, vector"
vector 126 Scenario.node[3].cache hitRate:vector ETV
attr interpolationmode none
attr source hitRate
attr title "hit rate, vector"
vector 127 Scenario.node[3].dataServer requestsReceived:vector ETV
attr interpolationmode none
attr source receive
attr title "requests received, vector"
vector 128 Scenario.node[3].app[0] packetReceived:vector(packetBytes) ETV
attr interpolationmode none
attr source packetReceived
attr title "packets received, vector(packetBytes)"
vector 129 Scenario.node[3].app[0] throughput:vector ETV
attr source throughput(packetReceived)
attr title "throughput, vector"
attr unit bps
vector 130 Scenario.node[3].app[0] RequestReceiveTime:vector ETV
attr interpolationmode none
attr source receiveTime
attr title "request time, vector"
vector 131 Scenario.node[4].app[0] packetSent:vector(packetBytes) ETV
attr interpolationmode none
attr source packetSent
attr title "packets sent, vector(packetBytes)"
vector 132 Scenario.node[4].udp packetSent:vector(packetBytes) ETV
attr interpolationmode none
attr source packetSent
attr title "packets sent, vector(packetBytes)"
vector 133 Scenario.node[4].lo[0].lo rcvdPkFromHl:vector(packetBytes) ETV
attr interpolationmode none
attr source packetReceivedFromUpper
attr title "packets received from higher layer, vector(packetBytes)"
vector 134 Scenario.node[4].lo[0].lo passedUpPk:vector(packetBytes) ETV
attr interpolationmode none
attr source packetSentToUpper
attr title "packets passed to higher layer, vector(packetBytes)"
vector 135 Scenario.node[4].wlan[0].mac packetReceivedFromUpper:vector(packetBytes) ETV
attr interpolationmode none
attr title "packets received from upper layer, vector(packetBytes)"
vector 136 Scenario.node[4].wlan[0].mac.dcf.channelAccess.pendingQueue packetPushed:vector(packetBytes) ETV
attr interpolationmode none
attr title "packet pushed, vector(packetBytes)"
vector 137 Scenario.node[4].wlan[0].mac.dcf.channelAccess.pendingQueue queueLength:vector ETV
attr interpolationmode sample-hold
attr source "count(packetPushed) - count(packetPopped) - count(packetRemoved) - count(packetDropped)"
attr title "queue length, vector"
vector 138 Scenario.node[4].wlan[0].mac.dcf.channelAccess.contention backoffPeriodGenerated:vector ETV
attr interpolationmode none
attr title "backoff periods, vector"
vector 139 Scenario.node[4].wlan[0].mac.dcf.channelAccess.contention backoffActive:vector ETV
attr interpolationmode sample-hold
attr source count(backoffStarted)-count(backoffStopped)
attr title "backoff active, vector"
vector 140 Scenario.node[4].wlan[0].mac.dcf.channelAccess.pendingQueue packetPopped:vector(packetBytes) ETV
attr interpolationmode none
attr title "packet popped, vector(packetBytes)"
vector 141 Scenario.node[4].wlan[0].mac.dcf.channelAccess.pendingQueue queueingTime:vector ETV
attr interpolationmode none
attr source queueingTime(packetPopped)
attr title "queueing times, vector"
attr unit s
vector 142 Scenario.node[4].wlan[0].mac.dcf.channelAccess.inProgressFrames queueLength:vector ETV
attr interpolationmode sample-hold
attr source "count(packetEnqueued) - count(packetDequeued)"
attr title "queue length, vector"
vector 143 Scenario.node[4].wlan[0].mac.dcf datarateSelected:vector ETV
attr interpolationmode none
attr title "datarates selected, vector"
vector 144 Scenario.node[4].wlan[0].mac packetSentToLower:vector(packetBytes) ETV
attr interpolationmode none
attr title "packets sent to lower layer, vector(packetBytes)"
vector 145 Scenario.node[4].wlan[0].mac.dcf frameSequenceActive:vector ETV
attr interpolationmode sample-hold
attr source count(frameSequenceStarted)-count(frameSequenceFinished)
attr title "frame sequence active, vector"
vector 146 Scenario.node[4].wlan[0].radio transmissionState:vector ETV
attr interpolationmode sample-hold
attr source transmissionStateChanged
attr title "Radio transmission state, vector"
vector 147 Scenario.node[4].wlan[0].mac.dcf packetSentToPeer:vector(packetBytes) ETV
attr interpolationmode none
attr title "packets sent, vector(packetBytes)"
vector 148 Scenario.node[4].wlan[0].mac.dcf packetSentToPeerMulticast:vector(packetBytes) ETV
attr interpolationmode none
attr source ieee80211Multicast(packetSentToPeer)
attr title "packets sent: multicast, vector(packetBytes)"
vector 149 Scenario.node[4].wlan[0].mac.dcf packetSentToPeerWithoutRetry:vector(packetBytes) ETV
attr interpolationmode none
attr source ieee80211NotRetry(packetSentToPeer)
attr title "packets sent: without retry, vector(packetBytes)"
vector 150 Scenario.node[4].wlan[0].mac.dcf.channelAccess.inProgressFrames queueingTime:vector ETV
attr interpolationmode none
attr source queueingTime(packetDequeued)
attr title "queueing times, vector"
vector 151 Scenario.node[3].app[0] packetSent:vector(packetBytes) ETV
attr interpolationmode none
attr source packetSent
attr title "packets sent, vector(packetBytes)"
vector 152 Scenario.node[3].udp packetSent:vector(packetBytes) ETV
attr interpolationmode none
attr source packetSent
attr title "packets sent, vector(packetBytes)"
vector 153 Scenario.node[3].lo[0].lo rcvdPkFromHl:vector(packetBytes) ETV
attr interpolationmode none
attr source packetReceivedFromUpper
attr title "packets received from higher layer, vector(packetBytes)"
vector 154 Scenario.node[3].lo[0].lo passedUpPk:vector(packetBytes) ETV
attr interpolationmode none
attr source packetSentToUpper
attr title "packets passed to higher layer, vector(packetBytes)"
vector 155 Scenario.node[3].wlan[0].mac packetReceivedFromUpper:vector(packetBytes) ETV
attr interpolationmode none
attr title "packets received from upper layer, vector(packetBytes)"
vector 156 Scenario.node[3].wlan[0].mac.dcf.channelAccess.pendingQueue packetPushed:vector(packetBytes) ETV
attr interpolationmode none
attr title "packet pushed, vector(packetBytes)"
vector 157 Scenario.node[3].wlan[0].mac.dcf.channelAccess.pendingQueue queueLength:vector ETV
attr interpolationmode sample-hold
attr source "count(packetPushed) - count(packetPopped) - count(packetRemoved) - count(packetDropped)"
attr title "queue length, vector"
vector 158 Scenario.node[3].wlan[0].mac.dcf.channelAccess.contention backoffPeriodGenerated:vector ETV
attr interpolationmode none
attr title "backoff periods, vector"
vector 159 Scenario.node[3].wlan[0].mac.dcf.channelAccess.contention backoffActive:vector ETV
attr interpolationmode sample-hold
attr source count(backoffStarted)-count(backoffStopped)
attr title "backoff active, vector"
vector 160 Scenario.node[3].udp packetReceived:vector(packetBytes) ETV
attr interpolationmode none
attr source packetReceived
attr title "packets received, vector(packetBytes)"
vector 161 Scenario.node[3].udp passedUpPk:vector(count) ETV
attr interpolationmode none
attr source packetSentToUpper
attr title "packets passed up, vector(count)"
vector 162 Scenario.node[3].wlan[0].mac.dcf.channelAccess.pendingQueue packetPopped:vector(packetBytes) ETV
attr interpolationmode none
attr title "packet popped, vector(packetBytes)"
vector 163 Scenario.node[3].wlan[0].mac.dcf.channelAccess.pendingQueue queueingTime:vector ETV
attr interpolationmode none
attr source queueingTime(packetPopped)
attr title "queueing times, vector"
attr unit s
vector 164 Scenario.node[3].wlan[0].mac.dcf.channelAccess.inProgressFrames queueLength:vector ETV
attr interpolationmode sample-hold
attr source "count(packetEnqueued) - count(packetDequeued)"
attr title "queue length, vector"
vector 165 Scenario.node[3].wlan[0].mac.dcf datarateSelected:vector ETV
attr interpolationmode none
attr title "datarates selected, vector"
vector 166 Scenario.node[3].wlan[0].mac packetSentToLower:vector(packetBytes) ETV
attr interpolationmode none
attr title "packets sent to lower layer, vector(packetBytes)"
vector 167 Scenario.node[3].wlan[0].mac.dcf frameSequenceActive:vector ETV
attr interpolationmode sample-hold
attr source count(frameSequenceStarted)-count(frameSequenceFinished)
attr title "frame sequence active, vector"
vector 168 Scenario.node[3].wlan[0].radio transmissionState:vector ETV
attr interpolationmode sample-hold
attr source transmissionStateChanged
attr title "Radio transmission state, vector"
vector 169 Scenario.node[3].wlan[0].mac.dcf packetSentToPeer:vector(packetBytes) ETV
attr interpolationmode none
attr title "packets sent, vector(packetBytes)"
vector 170 Scenario.node[3].wlan[0].mac.dcf packetSentToPeerMulticast:vector(packetBytes) ETV
attr interpolationmode none
attr source ieee80211Multicast(packetSentToPeer)
attr title "packets sent: multicast, vector(packetBytes)"
vector 171 Scenario.node[3].wlan[0].mac.dcf packetSentToPeerWithoutRetry:vector(packetBytes) ETV
attr interpolationmode none
attr source ieee80211NotRetry(packetSentToPeer)
attr title "packets sent: without retry, vector(packetBytes)"
vector 172 Scenario.node[3].wlan[0].mac.dcf.channelAccess.inProgressFrames queueingTime:vector ETV
attr interpolationmode none
attr source queueingTime(packetDequeued)
attr title "queueing times, vector"
vector 173 Scenario.node[1].wlan[0].mac packetReceivedFromLower:vector(packetBytes) ETV
attr interpolationmode none
attr title "packets received from lower layer, vector(packetBytes)"
vector 174 Scenario.node[1].wlan[0].mac.dcf packetReceivedFromPeer:vector(packetBytes) ETV
attr interpolationmode none
attr title "packets received, vector(packetBytes)"
vector 175 Scenario.node[1].wlan[0].mac.dcf packetReceivedFromPeerMulticast:vector(packetBytes) ETV
attr interpolationmode none
attr source ieee80211Multicast(packetReceivedFromPeer)
attr title "packets received: multicast, vector(packetBytes)"
vector 176 Scenario.node[1].wlan[0].mac.dcf packetReceivedFromPeerWithoutRetry:vector(packetBytes) ETV
attr interpolationmode none
attr source ieee80211NotRetry(packetReceivedFromPeer)
attr title "packets received: without retry, vector(packetBytes)"
vector 177 Scenario.node[1].wlan[0].mac packetSentToUpper:vector(packetBytes) ETV
attr interpolationmode none
attr title "packets sent to upper layer, vector(packetBytes)"
vector 178 Scenario.node[3].wlan[0].mac packetReceivedFromLower:vector(packetBytes) ETV
attr interpolationmode none
attr title "packets received from lower layer, vector(packetBytes)"
vector 179 Scenario.node[3].wlan[0].mac.dcf packetReceivedFromPeer:vector(packetBytes) ETV
attr interpolationmode none
attr title "packets received, vector(packetBytes)"
vector 180 Scenario.node[3].wlan[0].mac.dcf packetReceivedFromPeerMulticast:vector(packetBytes) ETV
attr interpolationmode none
attr source ieee80211Multicast(packetReceivedFromPeer)
attr title "packets received: multicast, vector(packetBytes)"
vector 181 Scenario.node[3].wlan[0].mac.dcf packetReceivedFromPeerWithoutRetry:vector(packetBytes) ETV
attr interpolationmode none
attr source ieee80211NotRetry(packetReceivedFromPeer)
attr title "packets received: without retry, vector(packetBytes)"
vector 182 Scenario.node[3].wlan[0].mac packetSentToUpper:vector(packetBytes) ETV
attr interpolationmode none
attr title "packets sent to upper layer, vector(packetBytes)"
vector 183 Scenario.node[0].app[0] RequestReceiveTime:vector ETV
attr interpolationmode none
attr source receiveTime
attr title "request time, vector"
vector 184 Scenario.node[4].app[0] RequestReceiveTime:vector ETV
attr interpolationmode none
attr source receiveTime
attr title "request time, vector"
vector 185 Scenario.node[5].wlan[0].radio radioMode:vector ETV
attr interpolationmode sample-hold
attr source radioModeChanged
attr title "Radio mode, vector"
vector 186 Scenario.node[5].wlan[0].radio radioChannel:vector ETV
attr interpolationmode sample-hold
attr source radioChannelChanged
attr title "Radio channel, vector"
vector 187 Scenario.node[5].wlan[0].radio receptionState:vector ETV
attr interpolationmode sample-hold
attr source receptionStateChanged
attr title "Radio reception state, vector"
vector 188 Scenario.node[5].wlan[0].mac.dcf.recoveryProcedure contentionWindowChanged:vector ETV
attr interpolationmode sample-hold
attr title "contention window, vector"
vector 189 Scenario.node[6].wlan[0].radio radioMode:vector ETV
attr interpolationmode sample-hold
attr source radioModeChanged
attr title "Radio mode, vector"
vector 190 Scenario.node[6].wlan[0].radio radioChannel:vector ETV
attr interpolationmode sample-hold
attr source radioChannelChanged
attr title "Radio channel, vector"
vector 191 Scenario.node[6].wlan[0].radio receptionState:vector ETV
attr interpolationmode sample-hold
attr source receptionStateChanged
attr title "Radio reception state, vector"
vector 192 Scenario.node[6].wlan[0].mac.dcf.recoveryProcedure contentionWindowChanged:vector ETV
attr interpolationmode sample-hold
attr title "contention window, vector"
vector 193 Scenario.node[5].cache requestsReceived:vector ETV
attr interpolationmode none
attr source receive
attr title "requests received, vector"
vector 194 Scenario.node[5].cache hitRate:vector ETV
attr interpolationmode none
attr source hitRate
attr title "hit rate, vector"
vector 195 Scenario.node[5].dataServer requestsReceived:vector ETV
attr interpolationmode none
attr source receive
attr title "requests received, vector"
vector 196 Scenario.node[5].app[0] packetReceived:vector(packetBytes) ETV
attr interpolationmode none
attr source packetReceived
attr title "packets received, vector(packetBytes)"
vector 197 Scenario.node[5].app[0] throughput:vector ETV
attr source throughput(packetReceived)
attr title "throughput, vector"
attr unit bps
vector 198 Scenario.node[5].app[0] packetSent:vector(packetBytes) ETV
attr interpolationmode none
attr source packetSent
attr title "packets sent, vector(packetBytes)"
vector 199 Scenario.node[5].udp packetSent:vector(packetBytes) ETV
attr interpolationmode none
attr source packetSent
attr title "packets sent, vector(packetBytes)"
vector 200 Scenario.node[5].lo[0].lo rcvdPkFromHl:vector(packetBytes) ETV
attr interpolationmode none
attr source packetReceivedFromUpper
attr title "packets received from higher layer, vector(packetBytes)"
vector 201 Scenario.node[5].lo[0].lo passedUpPk:vector(packetBytes) ETV
attr interpolationmode none
attr source packetSentToUpper
attr title "packets passed to higher layer, vector(packetBytes)"
vector 202 Scenario.node[5].wlan[0].mac packetReceivedFromUpper:vector(packetBytes) ETV
attr interpolationmode none
attr title "packets received from upper layer, vector(packetBytes)"
vector 203 Scenario.node[5].wlan[0].mac.dcf.channelAccess.pendingQueue packetPushed:vector(packetBytes) ETV
attr interpolationmode none
attr title "packet pushed, vector(packetBytes)"
vector 204 Scenario.node[5].wlan[0].mac.dcf.channelAccess.pendingQueue queueLength:vector ETV
attr interpolationmode sample-hold
attr source "count(packetPushed) - count(packetPopped) - count(packetRemoved) - count(packetDropped)"
attr title "queue length, vector"
vector 205 Scenario.node[5].wlan[0].mac.dcf.channelAccess.contention backoffPeriodGenerated:vector ETV
attr interpolationmode none
attr title "backoff periods, vector"
vector 206 Scenario.node[5].wlan[0].mac.dcf.channelAccess.contention backoffActive:vector ETV
attr interpolationmode sample-hold
attr source count(backoffStarted)-count(backoffStopped)
attr title "backoff active, vector"
vector 207 Scenario.node[5].udp packetReceived:vector(packetBytes) ETV
attr interpolationmode none
attr source packetReceived
attr title "packets received, vector(packetBytes)"
vector 208 Scenario.node[5].udp passedUpPk:vector(count) ETV
attr interpolationmode none
attr source packetSentToUpper
attr title "packets passed up, vector(count)"
vector 209 Scenario.node[5].wlan[0].mac.dcf.channelAccess.pendingQueue packetPopped:vector(packetBytes) ETV
attr interpolationmode none
attr title "packet popped, vector(packetBytes)"
vector 210 Scenario.node[5].wlan[0].mac.dcf.channelAccess.pendingQueue queueingTime:vector ETV
attr interpolationmode none
attr source queueingTime(packetPopped)
attr title "queueing times, vector"
attr unit s
vector 211 Scenario.node[5].wlan[0].mac.dcf.channelAccess.inProgressFrames queueLength:vector ETV
attr interpolationmode sample-hold
attr source "count(packetEnqueued) - count(packetDequeued)"
attr title "queue length, vector"
vector 212 Scenario.node[5].wlan[0].mac.dcf datarateSelected:vector ETV
attr interpolationmode none
attr title "datarates selected, vector"
vector 213 Scenario.node[5].wlan[0].mac packetSentToLower:vector(packetBytes) ETV
attr interpolationmode none
attr title "packets sent to lower layer, vector(packetBytes)"
vector 214 Scenario.node[5].wlan[0].mac.dcf frameSequenceActive:vector ETV
attr interpolationmode sample-hold
attr source count(frameSequenceStarted)-count(frameSequenceFinished)
attr title "frame sequence active, vector"
vector 215 Scenario.node[5].wlan[0].radio transmissionState:vector ETV
attr interpolationmode sample-hold
attr source transmissionStateChanged
attr title "Radio transmission state, vector"
vector 216 Scenario.node[5].wlan[0].mac.dcf packetSentToPeer:vector(packetBytes) ETV
attr interpolationmode none
attr title "packets sent, vector(packetBytes)"
vector 217 Scenario.node[5].wlan[0].mac.dcf packetSentToPeerMulticast:vector(packetBytes) ETV
attr interpolationmode none
attr source ieee80211Multicast(packetSentToPeer)
attr title "packets sent: multicast, vector(packetBytes)"
vector 218 Scenario.node[5].wlan[0].mac.dcf packetSentToPeerWithoutRetry:vector(packetBytes) ETV
attr interpolationmode none
attr source ieee80211NotRetry(packetSentToPeer)
attr title "packets sent: without retry, vector(packetBytes)"
vector 219 Scenario.node[5].wlan[0].mac.dcf.channelAccess.inProgressFrames queueingTime:vector ETV
attr interpolationmode none
attr source queueingTime(packetDequeued)
attr title "queueing times, vector"
42	154	10.198	540
42	226	15.118	540
42	436	25.139	540
42	532	30.173	540
42	632	35.101	540
42	938	45.123	540
42	1252	55.106	540
43	154	10.198	540
43	226	15.118	540
43	436	25.139	540
43	532	30.173	540
43	632	35.101	540
43	938	45.123	540
43	1252	55.106	540
173	900	43.163424565575	570
173	1338	55.133849265264	570
55	161	10.198	570
55	233	15.118	570
55	443	25.139	570
55	539	30.173	570
55	639	35.101	570
55	945	45.123	570
55	1259	55.106	570
44	157	10.198	542
44	229	15.118	542
44	439	25.139	542
44	535	30.173	542
44	635	35.101	542
44	941	45.123	542
44	1255	55.106	542
177	900	43.163424565575	542
177	1338	55.133849265264	542
176	900	43.163424565575	570
176	1338	55.133849265264	570
175	900	43.163424565575	570
175	1338	55.133849265264	570
174	900	43.163424565575	570
174	1338	55.133849265264	570
60	165	10.198424	570
60	237	15.118424	570
60	448	25.139424	570
60	544	30.173424	570
60	645	35.101424	570
60	952	45.123424	570
60	1268	55.106424	570
59	165	10.198424	570
59	237	15.118424	570
59	448	25.139424	570
59	544	30.173424	570
59	645	35.101424	570
59	952	45.123424	570
59	1268	55.106424	570
58	165	10.198424	570
58	237	15.118424	570
58	448	25.139424	570
58	544	30.173424	570
58	645	35.101424	570
58	952	45.123424	570
58	1268	55.106424	570
56	161	10.198	1
56	165	10.198424	0
56	233	15.118	1
56	237	15.118424	0
56	443	25.139	1
56	448	25.139424	0
56	539	30.173	1
56	544	30.173424	0
56	639	35.101	1
56	645	35.101424	0
56	945	45.123	1
56	952	45.123424	0
56	1259	55.106	1
56	1268	55.106424	0
54	161	10.198	12000000
54	233	15.118	12000000
54	443	25.139	12000000
54	539	30.173	12000000
54	639	35.101	12000000
54	945	45.123	12000000
54	1259	55.106	12000000
52	161	10.198	0
52	233	15.118	0
52	443	25.139	0
52	539	30.173	0
52	639	35.101	0
52	945	45.123	0
52	1259	55.106	0
51	161	10.198	570
51	233	15.118	570
51	443	25.139	570
51	539	30.173	570
51	639	35.101	570
51	945	45.123	570
51	1259	55.106	570
45	157	10.198	570
45	229	15.118	570
45	439	25.139	570
45	535	30.173	570
45	635	35.101	570
45	941	45.123	570
45	1255	55.106	570
46	157	10.198	1
46	161	10.198	0
46	229	15.118	1
46	233	15.118	0
46	439	25.139	1
46	443	25.139	0
46	535	30.173	1
46	539	30.173	0
46	635	35.101	1
46	639	35.101	0
46	941	45.123	1
46	945	45.123	0
46	1255	55.106	1
46	1259	55.106	0
61	165	10.198424	0.000424
61	237	15.118424	0.000424
61	448	25.139424	0.000424
61	544	30.173424	0.000424
61	645	35.101424	0.000424
61	952	45.123424	0.000424
61	1268	55.106424	0.000424
53	161	10.198	1
53	165	10.198424	0
53	233	15.118	1
53	237	15.118424	0
53	443	25.139	1
53	448	25.139424	0
53	539	30.173	1
53	544	30.173424	0
53	639	35.101	1
53	645	35.101424	0
53	945	45.123	1
53	952	45.123424	0
53	1259	55.106	1
53	1268	55.106424	0
48	157	10.198	1
48	160	10.198	0
48	229	15.118	1
48	232	15.118	0
48	439	25.139	1
48	442	25.139	0
48	535	30.173	1
48	538	30.173	0
48	635	35.101	1
48	638	35.101	0
48	941	45.123	1
48	944	45.123	0
48	1255	55.106	1
48	1258	55.106	0
47	157	10.198	9
47	229	15.118	3
47	439	25.139	12
47	535	30.173	1
47	635	35.101	8
47	941	45.123	0
47	1255	55.106	13
9	56	5.1	15
57	162	10.198	1
57	163	10.198	2
57	165	10.198424	1
57	166	10.198424	0
57	234	15.118	1
57	235	15.118	2
57	237	15.118424	1
57	238	15.118424	0
57	444	25.139	1
57	445	25.139	2
57	448	25.139424	1
57	449	25.139424	0
57	540	30.173	1
57	541	30.173	2
57	544	30.173424	1
57	545	30.173424	0
57	640	35.101	1
57	641	35.101	2
57	645	35.101424	1
57	646	35.101424	0
57	946	45.123	1
57	947	45.123	2
57	952	45.123424	1
57	953	45.123424	0
57	1260	55.106	1
57	1261	55.106	2
57	1268	55.106424	1
57	1269	55.106424	0
8	56	5.1	1
8	162	10.198	0
8	166	10.198424	1
8	234	15.118	0
8	238	15.118424	1
8	444	25.139	0
8	449	25.139424	1
8	540	30.173	0
8	545	30.173424	1
8	640	35.101	0
8	646	35.101424	1
8	893	43.163000565575	3
8	899	43.163424565575	1
8	946	45.123	0
8	953	45.123424	1
8	1260	55.106	0
8	1269	55.106424	1
8	1329	55.133425265264	3
8	1337	55.133849265264	1
6	56	5.1	0
6	56	5.1	0
6	56	5.1	2
6	162	10.198	3
6	166	10.198424	2
6	234	15.118	3
6	238	15.118424	2
6	444	25.139	3
6	449	25.139424	2
6	540	30.173	3
6	545	30.173424	2
6	640	35.101	3
6	646	35.101424	2
6	946	45.123	3
6	953	45.123424	2
6	1260	55.106	3
6	1269	55.106424	2
7	56	5.1	3
49	158	10.198	520
49	230	15.118	520
49	440	25.139	520
49	536	30.173	520
49	636	35.101	520
49	903	43.163424565575	520
49	942	45.123	520
49	1256	55.106	520
49	1341	55.133849265264	520
41	152	10.198	520
41	224	15.118	520
41	434	25.139	520
41	530	30.173	520
41	630	35.101	520
41	936	45.123	520
41	1250	55.106	520
50	158	10.198	1
50	230	15.118	2
50	440	25.139	3
50	536	30.173	4
50	636	35.101	5
50	903	43.163424565575	6
50	942	45.123	7
50	1256	55.106	8
50	1341	55.133849265264	9
66	316	20.188	0.088000000000001
66	780	40.172	0.071999999999996
66	1127	50.154	0.053999999999995
66	1342	55.133849265264	0.033849265263996
39	151	0.1	0
39	151	0.2	0
39	151	0.3	0
39	151	0.4	0
39	151	0.5	0
39	151	0.6	0
39	151	0.7	0
39	151	0.8	0
39	151	0.9	0
39	151	1	0
39	151	1.1	0
39	151	1.2	0
39	151	1.3	0
39	151	1.4	0
39	151	1.5	0
39	151	1.6	0
39	151	1.7	0
39	151	1.8	0
39	151	1.9	0
39	151	2	0
39	151	2.1	0
39	151	2.2	0
39	151	2.3	0
39	151	2.4	0
39	151	2.5	0
39	151	2.6	0
39	151	2.7	0
39	151	2.8	0
39	151	2.9	0
39	151	3	0
39	151	3.1	0
39	151	3.2	0
39	151	3.3	0
39	151	3.4	0
39	151	3.5	0
39	151	3.6	0
39	151	3.7	0
39	151	3.8	0
39	151	3.9	0
39	151	4	0
39	151	4.1	0
39	151	4.2	0
39	151	4.3	0
39	151	4.4	0
39	151	4.5	0
39	151	4.6	0
39	151	4.7	0
39	151	4.8	0
39	151	4.9	0
39	151	5	0
39	151	5.1	0
39	151	5.2	0
39	151	5.3	0
39	151	5.4	0
39	151	5.5	0
39	151	5.6	0
39	151	5.7	0
39	151	5.8	0
39	151	5.9	0
39	151	6	0
39	151	6.1	0
39	151	6.2	0
39	151	6.3	0
39	151	6.4	0
39	151	6.5	0
39	151	6.6	0
39	151	6.7	0
39	151	6.8	0
39	151	6.9	0
39	151	7	0
39	151	7.1	0
39	151	7.2	0
39	151	7.3	0
39	151	7.4	0
39	151	7.5	0
39	151	7.6	0
39	151	7.7	0
39	151	7.8	0
39	151	7.9	0
39	151	8	0
39	151	8.1	0
39	151	8.2	0
39	151	8.3	0
39	151	8.4	0
39	151	8.5	0
39	151	8.6	0
39	151	8.7	0
39	151	8.8	0
39	151	8.9	0
39	151	9	0
39	151	9.1	0
39	151	9.2	0
39	151	9.3	0
39	151	9.4	0
39	151	9.5	0
39	151	9.6	0
39	151	9.7	0
39	151	9.8	0
39	151	9.9	0
39	151	10	0
39	151	10.1	0
39	223	10.2	81920
39	223	10.3	0
39	223	10.4	0
39	223	10.5	0
39	223	10.6	0
39	223	10.7	0
39	223	10.8	0
39	223	10.9	0
39	223	11	0
39	223	11.1	0
39	223	11.2	0
39	223	11.3	0
39	223	11.4	0
39	223	11.5	0
39	223	11.6	0
39	223	11.7	0
39	223	11.8	0
39	223	11.9	0
39	223	12	0
39	223	12.1	0
39	223	12.2	0
39	223	12.3	0
39	223	12.4	0
39	223	12.5	0
39	223	12.6	0
39	223	12.7	0
39	223	12.8	0
39	223	12.9	0
39	223	13	0
39	223	13.1	0
39	223	13.2	0
39	223	13.3	0
39	223	13.4	0
39	223	13.5	0
39	223	13.6	0
39	223	13.7	0
39	223	13.8	0
39	223	13.9	0
39	223	14	0
39	223	14.1	0
39	223	14.2	0
39	223	14.3	0
39	223	14.4	0
39	223	14.5	0
39	223	14.6	0
39	223	14.7	0
39	223	14.8	0
39	223	14.9	0
39	223	15	0
39	223	15.1	0
39	316	15.2	81920
39	316	15.3	0
39	316	15.4	0
39	316	15.5	0
39	316	15.6	0
39	316	15.7	0
39	316	15.8	0
39	316	15.9	0
39	316	16	0
39	316	16.1	0
39	316	16.2	0
39	316	16.3	0
39	316	16.4	0
39	316	16.5	0
39	316	16.6	0
39	316	16.7	0
39	316	16.8	0
39	316	16.9	0
39	316	17	0
39	316	17.1	0
39	316	17.2	0
39	316	17.3	0
39	316	17.4	0
39	316	17.5	0
39	316	17.6	0
39	316	17.7	0
39	316	17.8	0
39	316	17.9	0
39	316	18	0
39	316	18.1	0
39	316	18.2	0
39	316	18.3	0
39	316	18.4	0
39	316	18.5	0
39	316	18.6	0
39	316	18.7	0
39	316	18.8	0
39	316	18.9	0
39	316	19	0
39	316	19.1	0
39	316	19.2	0
39	316	19.3	0
39	316	19.4	0
39	316	19.5	0
39	316	19.6	0
39	316	19.7	0
39	316	19.8	0
39	316	19.9	0
39	316	20	0
39	316	20.1	0
39	433	20.2	40960
39	433	20.3	0
39	433	20.4	0
39	433	20.5	0
39	433	20.6	0
39	433	20.7	0
39	433	20.8	0
39	433	20.9	0
39	433	21	0
39	433	21.1	0
39	433	21.2	0
39	433	21.3	0
39	433	21.4	0
39	433	21.5	0
39	433	21.6	0
39	433	21.7	0
39	433	21.8	0
39	433	21.9	0
39	433	22	0
39	433	22.1	0
39	433	22.2	0
39	433	22.3	0
39	433	22.4	0
39	433	22.5	0
39	433	22.6	0
39	433	22.7	0
39	433	22.8	0
39	433	22.9	0
39	433	23	0
39	433	23.1	0
39	433	23.2	0
39	433	23.3	0
39	433	23.4	0
39	433	23.5	0
39	433	23.6	0
39	433	23.7	0
39	433	23.8	0
39	433	23.9	0
39	433	24	0
39	433	24.1	0
39	433	24.2	0
39	433	24.3	0
39	433	24.4	0
39	433	24.5	0
39	433	24.6	0
39	433	24.7	0
39	433	24.8	0
39	433	24.9	0
39	433	25	0
39	433	25.1	0
39	529	25.2	81920
39	529	25.3	0
39	529	25.4	0
39	529	25.5	0
39	529	25.6	0
39	529	25.7	0
39	529	25.8	0
39	529	25.9	0
39	529	26	0
39	529	26.1	0
39	529	26.2	0
39	529	26.3	0
39	529	26.4	0
39	529	26.5	0
39	529	26.6	0
39	529	26.7	0
39	529	26.8	0
39	529	26.9	0
39	529	27	0
39	529	27.1	0
39	529	27.2	0
39	529	27.3	0
39	529	27.4	0
39	529	27.5	0
39	529	27.6	0
39	529	27.7	0
39	529	27.8	0
39	529	27.9	0
39	529	28	0
39	529	28.1	0
39	529	28.2	0
39	529	28.3	0
39	529	28.4	0
39	529	28.5	0
39	529	28.6	0
39	529	28.7	0
39	529	28.8	0
39	529	28.9	0
39	529	29	0
39	529	29.1	0
39	529	29.2	0
39	529	29.3	0
39	529	29.4	0
39	529	29.5	0
39	529	29.6	0
39	529	29.7	0
39	529	29.8	0
39	529	29.9	0
39	529	30	0
39	529	30.1	0
39	629	30.2	81920
39	629	30.3	0
39	629	30.4	0
39	629	30.5	0
39	629	30.6	0
39	629	30.7	0
39	629	30.8	0
39	629	30.9	0
39	629	31	0
39	629	31.1	0
39	629	31.2	0
39	629	31.3	0
39	629	31.4	0
39	629	31.5	0
39	629	31.6	0
39	629	31.7	0
39	629	31.8	0
39	629	31.9	0
39	629	32	0
39	629	32.1	0
39	629	32.2	0
39	629	32.3	0
39	629	32.4	0
39	629	32.5	0
39	629	32.6	0
39	629	32.7	0
39	629	32.8	0
39	629	32.9	0
39	629	33	0
39	629	33.1	0
39	629	33.2	0
39	629	33.3	0
39	629	33.4	0
39	629	33.5	0
39	629	33.6	0
39	629	33.7	0
39	629	33.8	0
39	629	33.9	0
39	629	34	0
39	629	34.1	0
39	629	34.2	0
39	629	34.3	0
39	629	34.4	0
39	629	34.5	0
39	629	34.6	0
39	629	34.7	0
39	629	34.8	0
39	629	34.9	0
39	629	35	0
39	629	35.1	0
39	780	35.2	81920
39	780	35.3	0
39	780	35.4	0
39	780	35.5	0
39	780	35.6	0
39	780	35.7	0
39	780	35.8	0
39	780	35.9	0
39	780	36	0
39	780	36.1	0
39	780	36.2	0
39	780	36.3	0
39	780	36.4	0
39	780	36.5	0
39	780	36.6	0
39	780	36.7	0
39	780	36.8	0
39	780	36.9	0
39	780	37	0
39	780	37.1	0
39	780	37.2	0
39	780	37.3	0
39	780	37.4	0
39	780	37.5	0
39	780	37.6	0
39	780	37.7	0
39	780	37.8	0
39	780	37.9	0
39	780	38	0
39	780	38.1	0
39	780	38.2	0
39	780	38.3	0
39	780	38.4	0
39	780	38.5	0
39	780	38.6	0
39	780	38.7	0
39	780	38.8	0
39	780	38.9	0
39	780	39	0
39	780	39.1	0
39	780	39.2	0
39	780	39.3	0
39	780	39.4	0
39	780	39.5	0
39	780	39.6	0
39	780	39.7	0
39	780	39.8	0
39	780	39.9	0
39	780	40	0
39	780	40.1	0
39	904	40.2	40960
39	904	40.3	0
39	904	40.4	0
39	904	40.5	0
39	904	40.6	0
39	904	40.7	0
39	904	40.8	0
39	904	40.9	0
39	904	41	0
39	904	41.1	0
39	904	41.2	0
39	904	41.3	0
39	904	41.4	0
39	904	41.5	0
39	904	41.6	0
39	904	41.7	0
39	904	41.8	0
39	904	41.9	0
39	904	42	0
39	904	42.1	0
39	904	42.2	0
39	904	42.3	0
39	904	42.4	0
39	904	42.5	0
39	904	42.6	0
39	904	42.7	0
39	904	42.8	0
39	904	42.9	0
39	904	43	0
39	904	43.1	0
39	911	43.2	40960
39	935	43.3	40960
39	935	43.4	0
39	935	43.5	0
39	935	43.6	0
39	935	43.7	0
39	935	43.8	0
39	935	43.9	0
39	935	44	0
39	935	44.1	0
39	935	44.2	0
39	935	44.3	0
39	935	44.4	0
39	935	44.5	0
39	935	44.6	0
39	935	44.7	0
39	935	44.8	0
39	935	44.9	0
39	935	45	0
39	935	45.1	0
39	1127	45.2	81920
39	1127	45.3	0
39	1127	45.4	0
39	1127	45.5	0
39	1127	45.6	0
39	1127	45.7	0
39	1127	45.8	0
39	1127	45.9	0
39	1127	46	0
39	1127	46.1	0
39	1127	46.2	0
39	1127	46.3	0
39	1127	46.4	0
39	1127	46.5	0
39	1127	46.6	0
39	1127	46.7	0
39	1127	46.8	0
39	1127	46.9	0
39	1127	47	0
39	1127	47.1	0
39	1127	47.2	0
39	1127	47.3	0
39	1127	47.4	0
39	1127	47.5	0
39	1127	47.6	0
39	1127	47.7	0
39	1127	47.8	0
39	1127	47.9	0
39	1127	48	0
39	1127	48.1	0
39	1127	48.2	0
39	1127	48.3	0
39	1127	48.4	0
39	1127	48.5	0
39	1127	48.6	0
39	1127	48.7	0
39	1127	48.8	0
39	1127	48.9	0
39	1127	49	0
39	1127	49.1	0
39	1127	49.2	0
39	1127	49.3	0
39	1127	49.4	0
39	1127	49.5	0
39	1127	49.6	0
39	1127	49.7	0
39	1127	49.8	0
39	1127	49.9	0
39	1127	50	0
39	1127	50.1	0
39	1249	50.2	40960
39	1249	50.3	0
39	1249	50.4	0
39	1249	50.5	0
39	1249	50.6	0
39	1249	50.7	0
39	1249	50.8	0
39	1249	50.9	0
39	1249	51	0
39	1249	51.1	0
39	1249	51.2	0
39	1249	51.3	0
39	1249	51.4	0
39	1249	51.5	0
39	1249	51.6	0
39	1249	51.7	0
39	1249	51.8	0
39	1249	51.9	0
39	1249	52	0
39	1249	52.1	0
39	1249	52.2	0
39	1249	52.3	0
39	1249	52.4	0
39	1249	52.5	0
39	1249	52.6	0
39	1249	52.7	0
39	1249	52.8	0
39	1249	52.9	0
39	1249	53	0
39	1249	53.1	0
39	1249	53.2	0
39	1249	53.3	0
39	1249	53.4	0
39	1249	53.5	0
39	1249	53.6	0
39	1249	53.7	0
39	1249	53.8	0
39	1249	53.9	0
39	1249	54	0
39	1249	54.1	0
39	1249	54.2	0
39	1249	54.3	0
39	1249	54.4	0
39	1249	54.5	0
39	1249	54.6	0
39	1249	54.7	0
39	1249	54.8	0
39	1249	54.9	0
39	1249	55	0
39	1249	55.1	0
39	1365	55.2	122880
39	1365	55.3	0
39	1365	55.4	0
39	1365	55.5	0
39	1365	55.6	0
39	1365	55.7	0
39	1365	55.8	0
39	1365	55.9	0
39	1365	56	0
39	1365	56.1	0
38	151	10.198	512
38	159	10.198	512
38	223	15.118	512
38	231	15.118	512
38	316	20.188	512
38	433	25.139	512
38	441	25.139	512
38	529	30.173	512
38	537	30.173	512
38	629	35.101	512
38	637	35.101	512
38	780	40.172	512
38	904	43.163424565575	512
38	911	43.225424565575	512
38	935	45.123	512
38	943	45.123	512
38	1127	50.154	512
38	1249	55.106	512
38	1257	55.106	512
38	1342	55.133849265264	512
40	151	10.198	512
40	223	15.118	512
40	433	25.139	512
40	529	30.173	512
40	629	35.101	512
40	935	45.123	512
40	1249	55.106	512
36	129	10.1	0
36	219	15.1	0
36	312	20.1	0
36	409	25.1	0
36	525	30.1	0
36	625	35.1	0
36	776	40.1	0
36	904	43.163424565575	0
36	931	45.1	0
36	1122	50.1	0
36	1245	55.1	0
35	129	10.1	1
35	219	15.1	2
35	312	20.1	3
35	409	25.1	4
35	525	30.1	5
35	625	35.1	6
35	776	40.1	7
35	904	43.163424565575	8
35	931	45.1	9
35	1122	50.1	10
35	1245	55.1	11
37	132	10.1	1
37	222	15.1	2
37	315	20.1	3
37	412	25.1	4
37	528	30.1	5
37	628	35.1	6
37	779	40.1	7
37	905	43.163424565575	8
37	934	45.1	9
37	1125	50.1	10
37	1248	55.1	11
vector 220 Scenario.node[6].wlan[0].mac packetReceivedFromLower:vector(packetBytes) ETV
attr interpolationmode none
attr title "packets received from lower layer, vector(packetBytes)"
vector 221 Scenario.node[6].wlan[0].mac.dcf packetReceivedFromPeer:vector(packetBytes) ETV
attr interpolationmode none
attr title "packets received, vector(packetBytes)"
vector 222 Scenario.node[6].wlan[0].mac.dcf packetReceivedFromPeerMulticast:vector(packetBytes) ETV
attr interpolationmode none
attr source ieee80211Multicast(packetReceivedFromPeer)
attr title "packets received: multicast, vector(packetBytes)"
vector 223 Scenario.node[6].wlan[0].mac.dcf packetReceivedFromPeerWithoutRetry:vector(packetBytes) ETV
attr interpolationmode none
attr source ieee80211NotRetry(packetReceivedFromPeer)
attr title "packets received: without retry, vector(packetBytes)"
vector 224 Scenario.node[6].wlan[0].mac packetSentToUpper:vector(packetBytes) ETV
attr interpolationmode none
attr title "packets sent to upper layer, vector(packetBytes)"
vector 225 Scenario.node[6].udp packetReceived:vector(packetBytes) ETV
attr interpolationmode none
attr source packetReceived
attr title "packets received, vector(packetBytes)"
vector 226 Scenario.node[6].udp passedUpPk:vector(count) ETV
attr interpolationmode none
attr source packetSentToUpper
attr title "packets passed up, vector(count)"
vector 227 Scenario.node[6].app[0] packetReceived:vector(packetBytes) ETV
attr interpolationmode none
attr source packetReceived
attr title "packets received, vector(packetBytes)"
vector 228 Scenario.node[6].app[0] throughput:vector ETV
attr source throughput(packetReceived)
attr title "throughput, vector"
attr unit bps
vector 229 Scenario.node[6].cache requestsReceived:vector ETV
attr interpolationmode none
attr source receive
attr title "requests received, vector"
vector 230 Scenario.node[6].cache hitRate:vector ETV
attr interpolationmode none
attr source hitRate
attr title "hit rate, vector"
vector 231 Scenario.node[6].dataServer requestsReceived:vector ETV
attr interpolationmode none
attr source receive
attr title "requests received, vector"
vector 232 Scenario.node[6].app[0] packetSent:vector(packetBytes) ETV
attr interpolationmode none
attr source packetSent
attr title "packets sent, vector(packetBytes)"
vector 233 Scenario.node[6].udp packetSent:vector(packetBytes) ETV
attr interpolationmode none
attr source packetSent
attr title "packets sent, vector(packetBytes)"
vector 234 Scenario.node[6].lo[0].lo rcvdPkFromHl:vector(packetBytes) ETV
attr interpolationmode none
attr source packetReceivedFromUpper
attr title "packets received from higher layer, vector(packetBytes)"
vector 235 Scenario.node[6].lo[0].lo passedUpPk:vector(packetBytes) ETV
attr interpolationmode none
attr source packetSentToUpper
attr title "packets passed to higher layer, vector(packetBytes)"
vector 236 Scenario.node[6].wlan[0].mac packetReceivedFromUpper:vector(packetBytes) ETV
attr interpolationmode none
attr title "packets received from upper layer, vector(packetBytes)"
vector 237 Scenario.node[6].wlan[0].mac.dcf.channelAccess.pendingQueue packetPushed:vector(packetBytes) ETV
attr interpolationmode none
attr title "packet pushed, vector(packetBytes)"
vector 238 Scenario.node[6].wlan[0].mac.dcf.channelAccess.pendingQueue queueLength:vector ETV
attr interpolationmode sample-hold
attr source "count(packetPushed) - count(packetPopped) - count(packetRemoved) - count(packetDropped)"
attr title "queue length, vector"
vector 239 Scenario.node[6].wlan[0].mac.dcf.channelAccess.contention backoffPeriodGenerated:vector ETV
attr interpolationmode none
attr title "backoff periods, vector"
vector 240 Scenario.node[6].wlan[0].mac.dcf.channelAccess.contention backoffActive:vector ETV
attr interpolationmode sample-hold
attr source count(backoffStarted)-count(backoffStopped)
attr title "backoff active, vector"
vector 241 Scenario.node[6].wlan[0].mac.dcf.channelAccess.pendingQueue packetPopped:vector(packetBytes) ETV
attr interpolationmode none
attr title "packet popped, vector(packetBytes)"
vector 242 Scenario.node[6].wlan[0].mac.dcf.channelAccess.pendingQueue queueingTime:vector ETV
attr interpolationmode none
attr source queueingTime(packetPopped)
attr title "queueing times, vector"
attr unit s
vector 243 Scenario.node[6].wlan[0].mac.dcf.channelAccess.inProgressFrames queueLength:vector ETV
attr interpolationmode sample-hold
attr source "count(packetEnqueued) - count(packetDequeued)"
attr title "queue length, vector"
vector 244 Scenario.node[6].wlan[0].mac.dcf datarateSelected:vector ETV
attr interpolationmode none
attr title "datarates selected, vector"
vector 245 Scenario.node[6].wlan[0].mac packetSentToLower:vector(packetBytes) ETV
attr interpolationmode none
attr title "packets sent to lower layer, vector(packetBytes)"
vector 246 Scenario.node[6].wlan[0].mac.dcf frameSequenceActive:vector ETV
attr interpolationmode sample-hold
attr source count(frameSequenceStarted)-count(frameSequenceFinished)
attr title "frame sequence active, vector"
vector 247 Scenario.node[6].wlan[0].radio transmissionState:vector ETV
attr interpolationmode sample-hold
attr source transmissionStateChanged
attr title "Radio transmission state, vector"
vector 248 Scenario.node[6].wlan[0].mac.dcf packetSentToPeer:vector(packetBytes) ETV
attr interpolationmode none
attr title "packets sent, vector(packetBytes)"
vector 249 Scenario.node[6].wlan[0].mac.dcf packetSentToPeerMulticast:vector(packetBytes) ETV
attr interpolationmode none
attr source ieee80211Multicast(packetSentToPeer)
attr title "packets sent: multicast, vector(packetBytes)"
vector 250 Scenario.node[6].wlan[0].mac.dcf packetSentToPeerWithoutRetry:vector(packetBytes) ETV
attr interpolationmode none
attr source ieee80211NotRetry(packetSentToPeer)
attr title "packets sent: without retry, vector(packetBytes)"
vector 251 Scenario.node[6].wlan[0].mac.dcf.channelAccess.inProgressFrames queueingTime:vector ETV
attr interpolationmode none
attr source queueingTime(packetDequeued)
attr title "queueing times, vector"
vector 252 Scenario.node[6].app[0] RequestReceiveTime:vector ETV
attr interpolationmode none
attr source receiveTime
attr title "request time, vector"
vector 253 Scenario.node[5].app[0] RequestReceiveTime:vector ETV
attr interpolationmode none
attr source receiveTime
attr title "request time, vector"
vector 254 Scenario.node[7].wlan[0].radio radioMode:vector ETV
attr interpolationmode sample-hold
attr source radioModeChanged
attr title "Radio mode, vector"
vector 255 Scenario.node[7].wlan[0].radio radioChannel:vector ETV
attr interpolationmode sample-hold
attr source radioChannelChanged
attr title "Radio channel, vector"
vector 256 Scenario.node[7].wlan[0].radio receptionState:vector ETV
attr interpolationmode sample-hold
attr source receptionStateChanged
attr title "Radio reception state, vector"
vector 257 Scenario.node[7].wlan[0].mac.dcf.recoveryProcedure contentionWindowChanged:vector ETV
attr interpolationmode sample-hold
attr title "contention window, vector"
vector 258 Scenario.node[7].cache requestsReceived:vector ETV
attr interpolationmode none
attr source receive
attr title "requests received, vector"
vector 259 Scenario.node[7].cache hitRate:vector ETV
attr interpolationmode none
attr source hitRate
attr title "hit rate, vector"
vector 260 Scenario.node[7].dataServer requestsReceived:vector ETV
attr interpolationmode none
attr source receive
attr title "requests received, vector"
vector 261 Scenario.node[7].app[0] packetReceived:vector(packetBytes) ETV
attr interpolationmode none
attr source packetReceived
attr title "packets received, vector(packetBytes)"
vector 262 Scenario.node[7].app[0] throughput:vector ETV
attr source throughput(packetReceived)
attr title "throughput, vector"
attr unit bps
vector 263 Scenario.node[7].app[0] RequestReceiveTime:vector ETV
attr interpolationmode none
attr source receiveTime
attr title "request time, vector"
vector 264 Scenario.node[8].wlan[0].radio radioMode:vector ETV
attr interpolationmode sample-hold
attr source radioModeChanged
attr title "Radio mode, vector"
vector 265 Scenario.node[8].wlan[0].radio radioChannel:vector ETV
attr interpolationmode sample-hold
attr source radioChannelChanged
attr title "Radio channel, vector"
vector 266 Scenario.node[8].wlan[0].radio receptionState:vector ETV
attr interpolationmode sample-hold
attr source receptionStateChanged
attr title "Radio reception state, vector"
vector 267 Scenario.node[8].wlan[0].mac.dcf.recoveryProcedure contentionWindowChanged:vector ETV
attr interpolationmode sample-hold
attr title "contention window, vector"
vector 268 Scenario.node[8].wlan[0].mac packetReceivedFromLower:vector(packetBytes) ETV
attr interpolationmode none
attr title "packets received from lower layer, vector(packetBytes)"
vector 269 Scenario.node[8].wlan[0].mac.dcf packetReceivedFromPeer:vector(packetBytes) ETV
attr interpolationmode none
attr title "packets received, vector(packetBytes)"
vector 270 Scenario.node[8].wlan[0].mac.dcf packetReceivedFromPeerMulticast:vector(packetBytes) ETV
attr interpolationmode none
attr source ieee80211Multicast(packetReceivedFromPeer)
attr title "packets received: multicast, vector(packetBytes)"
vector 271 Scenario.node[8].wlan[0].mac.dcf packetReceivedFromPeerWithoutRetry:vector(packetBytes) ETV
attr interpolationmode none
attr source ieee80211NotRetry(packetReceivedFromPeer)
attr title "packets received: without retry, vector(packetBytes)"
vector 272 Scenario.node[8].wlan[0].mac packetSentToUpper:vector(packetBytes) ETV
attr interpolationmode none
attr title "packets sent to upper layer, vector(packetBytes)"
vector 273 Scenario.node[8].udp packetReceived:vector(packetBytes) ETV
attr interpolationmode none
attr source packetReceived
attr title "packets received, vector(packetBytes)"
vector 274 Scenario.node[8].udp passedUpPk:vector(count) ETV
attr interpolationmode none
attr source packetSentToUpper
attr title "packets passed up, vector(count)"
vector 275 Scenario.node[8].app[0] packetReceived:vector(packetBytes) ETV
attr interpolationmode none
attr source packetReceived
attr title "packets received, vector(packetBytes)"
vector 276 Scenario.node[8].app[0] throughput:vector ETV
attr source throughput(packetReceived)
attr title "throughput, vector"
attr unit bps
vector 277 Scenario.node[8].cache requestsReceived:vector ETV
attr interpolationmode none
attr source receive
attr title "requests received, vector"
vector 278 Scenario.node[8].cache hitRate:vector ETV
attr interpolationmode none
attr source hitRate
attr title "hit rate, vector"
vector 279 Scenario.node[8].dataServer requestsReceived:vector ETV
attr interpolationmode none
attr source receive
attr title "requests received, vector"
vector 280 Scenario.node[9].wlan[0].radio radioMode:vector ETV
attr interpolationmode sample-hold
attr source radioModeChanged
attr title "Radio mode, vector"
vector 281 Scenario.node[9].wlan[0].radio radioChannel:vector ETV
attr interpolationmode sample-hold
attr source radioChannelChanged
attr title "Radio channel, vector"
vector 282 Scenario.node[9].wlan[0].radio receptionState:vector ETV
attr interpolationmode sample-hold
attr source receptionStateChanged
attr title "Radio reception state, vector"
vector 283 Scenario.node[9].wlan[0].mac.dcf.recoveryProcedure contentionWindowChanged:vector ETV
attr interpolationmode sample-hold
attr title "contention window, vector"
vector 284 Scenario.node[5].wlan[0].mac packetReceivedFromLower:vector(packetBytes) ETV
attr interpolationmode none
attr title "packets received from lower layer, vector(packetBytes)"
vector 285 Scenario.node[5].wlan[0].mac.dcf packetReceivedFromPeer:vector(packetBytes) ETV
attr interpolationmode none
attr title "packets received, vector(packetBytes)"
vector 286 Scenario.node[5].wlan[0].mac.dcf packetReceivedFromPeerMulticast:vector(packetBytes) ETV
attr interpolationmode none
attr source ieee80211Multicast(packetReceivedFromPeer)
attr title "packets received: multicast, vector(packetBytes)"
vector 287 Scenario.node[5].wlan[0].mac.dcf packetReceivedFromPeerWithoutRetry:vector(packetBytes) ETV
attr interpolationmode none
attr source ieee80211NotRetry(packetReceivedFromPeer)
attr title "packets received: without retry, vector(packetBytes)"
vector 288 Scenario.node[5].wlan[0].mac packetSentToUpper:vector(packetBytes) ETV
attr interpolationmode none
attr title "packets sent to upper layer, vector(packetBytes)"
vector 289 Scenario.node[8].app[0] RequestReceiveTime:vector ETV
attr interpolationmode none
attr source receiveTime
attr title "request time, vector"
vector 290 Scenario.node[9].wlan[0].mac packetReceivedFromLower:vector(packetBytes) ETV
attr interpolationmode none
attr title "packets received from lower layer, vector(packetBytes)"
vector 291 Scenario.node[9].wlan[0].mac.dcf packetReceivedFromPeer:vector(packetBytes) ETV
attr interpolationmode none
attr title "packets received, vector(packetBytes)"
vector 292 Scenario.node[9].wlan[0].mac.dcf packetReceivedFromPeerMulticast:vector(packetBytes) ETV
attr interpolationmode none
attr source ieee80211Multicast(packetReceivedFromPeer)
attr title "packets received: multicast, vector(packetBytes)"
vector 293 Scenario.node[9].wlan[0].mac.dcf packetReceivedFromPeerWithoutRetry:vector(packetBytes) ETV
attr interpolationmode none
attr source ieee80211NotRetry(packetReceivedFromPeer)
attr title "packets received: without retry, vector(packetBytes)"
vector 294 Scenario.node[9].wlan[0].mac packetSentToUpper:vector(packetBytes) ETV
attr interpolationmode none
attr title "packets sent to upper layer, vector(packetBytes)"
vector 295 Scenario.node[9].udp packetReceived:vector(packetBytes) ETV
attr interpolationmode none
attr source packetReceived
attr title "packets received, vector(packetBytes)"
vector 296 Scenario.node[9].udp passedUpPk:vector(count) ETV
attr interpolationmode none
attr source packetSentToUpper
attr title "packets passed up, vector(count)"
vector 297 Scenario.node[9].app[0] packetReceived:vector(packetBytes) ETV
attr interpolationmode none
attr source packetReceived
attr title "packets received, vector(packetBytes)"
vector 298 Scenario.node[9].app[0] throughput:vector ETV
attr source throughput(packetReceived)
attr title "throughput, vector"
attr unit bps
vector 299 Scenario.node[9].cache requestsReceived:vector ETV
attr interpolationmode none
attr source receive
attr title "requests received, vector"
vector 300 Scenario.node[9].cache hitRate:vector ETV
attr interpolationmode none
attr source hitRate
attr title "hit rate, vector"
vector 301 Scenario.node[9].dataServer requestsReceived:vector ETV
attr interpolationmode none
attr source receive
attr title "requests received, vector"
vector 302 Scenario.node[9].app[0] packetSent:vector(packetBytes) ETV
attr interpolationmode none
attr source packetSent
attr title "packets sent, vector(packetBytes)"
vector 303 Scenario.node[9].udp packetSent:vector(packetBytes) ETV
attr interpolationmode none
attr source packetSent
attr title "packets sent, vector(packetBytes)"
vector 304 Scenario.node[9].lo[0].lo rcvdPkFromHl:vector(packetBytes) ETV
attr interpolationmode none
attr source packetReceivedFromUpper
attr title "packets received from higher layer, vector(packetBytes)"
vector 305 Scenario.node[9].lo[0].lo passedUpPk:vector(packetBytes) ETV
attr interpolationmode none
attr source packetSentToUpper
attr title "packets passed to higher layer, vector(packetBytes)"
vector 306 Scenario.node[9].wlan[0].mac packetReceivedFromUpper:vector(packetBytes) ETV
attr interpolationmode none
attr title "packets received from upper layer, vector(packetBytes)"
vector 307 Scenario.node[9].wlan[0].mac.dcf.channelAccess.pendingQueue packetPushed:vector(packetBytes) ETV
attr interpolationmode none
attr title "packet pushed, vector(packetBytes)"
vector 308 Scenario.node[9].wlan[0].mac.dcf.channelAccess.pendingQueue queueLength:vector ETV
attr interpolationmode sample-hold
attr source "count(packetPushed) - count(packetPopped) - count(packetRemoved) - count(packetDropped)"
attr title "queue length, vector"
vector 309 Scenario.node[9].wlan[0].mac.dcf.channelAccess.contention backoffPeriodGenerated:vector ETV
attr interpolationmode none
attr title "backoff periods, vector"
vector 310 Scenario.node[9].wlan[0].mac.dcf.channelAccess.contention backoffActive:vector ETV
attr interpolationmode sample-hold
attr source count(backoffStarted)-count(backoffStopped)
attr title "backoff active, vector"
vector 311 Scenario.node[9].wlan[0].mac.dcf.channelAccess.pendingQueue packetPopped:vector(packetBytes) ETV
attr interpolationmode none
attr title "packet popped, vector(packetBytes)"
vector 312 Scenario.node[9].wlan[0].mac.dcf.channelAccess.pendingQueue queueingTime:vector ETV
attr interpolationmode none
attr source queueingTime(packetPopped)
attr title "queueing times, vector"
attr unit s
vector 313 Scenario.node[9].wlan[0].mac.dcf.channelAccess.inProgressFrames queueLength:vector ETV
attr interpolationmode sample-hold
attr source "count(packetEnqueued) - count(packetDequeued)"
attr title "queue length, vector"
vector 314 Scenario.node[9].wlan[0].mac.dcf datarateSelected:vector ETV
attr interpolationmode none
attr title "datarates selected, vector"
vector 315 Scenario.node[9].wlan[0].mac packetSentToLower:vector(packetBytes) ETV
attr interpolationmode none
attr title "packets sent to lower layer, vector(packetBytes)"
vector 316 Scenario.node[9].wlan[0].mac.dcf frameSequenceActive:vector ETV
attr interpolationmode sample-hold
attr source count(frameSequenceStarted)-count(frameSequenceFinished)
attr title "frame sequence active, vector"
vector 317 Scenario.node[9].wlan[0].radio transmissionState:vector ETV
attr interpolationmode sample-hold
attr source transmissionStateChanged
attr title "Radio transmission state, vector"
vector 318 Scenario.node[9].wlan[0].mac.dcf packetSentToPeer:vector(packetBytes) ETV
attr interpolationmode none
attr title "packets sent, vector(packetBytes)"
vector 319 Scenario.node[9].wlan[0].mac.dcf packetSentToPeerMulticast:vector(packetBytes) ETV
attr interpolationmode none
attr source ieee80211Multicast(packetSentToPeer)
attr title "packets sent: multicast, vector(packetBytes)"
vector 320 Scenario.node[9].wlan[0].mac.dcf packetSentToPeerWithoutRetry:vector(packetBytes) ETV
attr interpolationmode none
attr source ieee80211NotRetry(packetSentToPeer)
attr title "packets sent: without retry, vector(packetBytes)"
vector 321 Scenario.node[9].wlan[0].mac.dcf.channelAccess.inProgressFrames queueingTime:vector ETV
attr interpolationmode none
attr source queueingTime(packetDequeued)
attr title "queueing times, vector"
vector 322 Scenario.node[10].wlan[0].radio radioMode:vector ETV
attr interpolationmode sample-hold
attr source radioModeChanged
attr title "Radio mode, vector"
vector 323 Scenario.node[10].wlan[0].radio radioChannel:vector ETV
attr interpolationmode sample-hold
attr source radioChannelChanged
attr title "Radio channel, vector"
vector 324 Scenario.node[10].wlan[0].radio receptionState:vector ETV
attr interpolationmode sample-hold
attr source receptionStateChanged
attr title "Radio reception state, vector"
vector 325 Scenario.node[10].wlan[0].mac.dcf.recoveryProcedure contentionWindowChanged:vector ETV
attr interpolationmode sample-hold
attr title "contention window, vector"
vector 326 Scenario.node[10].wlan[0].mac packetReceivedFromLower:vector(packetBytes) ETV
attr interpolationmode none
attr title "packets received from lower layer, vector(packetBytes)"
vector 327 Scenario.node[10].wlan[0].mac.dcf packetReceivedFromPeer:vector(packetBytes) ETV
attr interpolationmode none
attr title "packets received, vector(packetBytes)"
vector 328 Scenario.node[10].wlan[0].mac.dcf packetReceivedFromPeerMulticast:vector(packetBytes) ETV
attr interpolationmode none
attr source ieee80211Multicast(packetReceivedFromPeer)
attr title "packets received: multicast, vector(packetBytes)"
vector 329 Scenario.node[10].wlan[0].mac.dcf packetReceivedFromPeerWithoutRetry:vector(packetBytes) ETV
attr interpolationmode none
attr source ieee80211NotRetry(packetReceivedFromPeer)
attr title "packets received: without retry, vector(packetBytes)"
vector 330 Scenario.node[10].wlan[0].mac packetSentToUpper:vector(packetBytes) ETV
attr interpolationmode none
attr title "packets sent to upper layer, vector(packetBytes)"
vector 331 Scenario.node[10].udp packetReceived:vector(packetBytes) ETV
attr interpolationmode none
attr source packetReceived
attr title "packets received, vector(packetBytes)"
vector 332 Scenario.node[10].udp passedUpPk:vector(count) ETV
attr interpolationmode none
attr source packetSentToUpper
attr title "packets passed up, vector(count)"
vector 333 Scenario.node[10].app[0] packetReceived:vector(packetBytes) ETV
attr interpolationmode none
attr source packetReceived
attr title "packets received, vector(packetBytes)"
vector 334 Scenario.node[10].app[0] throughput:vector ETV
attr source throughput(packetReceived)
attr title "throughput, vector"
attr unit bps
vector 335 Scenario.node[10].cache requestsReceived:vector ETV
attr interpolationmode none
attr source receive
attr title "requests received, vector"
vector 336 Scenario.node[10].cache hitRate:vector ETV
attr interpolationmode none
attr source hitRate
attr title "hit rate, vector"
vector 337 Scenario.node[10].dataServer requestsReceived:vector ETV
attr interpolationmode none
attr source receive
attr title "requests received, vector"
vector 338 Scenario.node[9].app[0] RequestReceiveTime:vector ETV
attr interpolationmode none
attr source receiveTime
attr title "request time, vector"
vector 339 Scenario.node[10].app[0] RequestReceiveTime:vector ETV
attr interpolationmode none
attr source receiveTime
attr title "request time, vector"
15	64	5.189	540
15	136	10.135	540
15	244	15.176	540
15	320	20.196	540
15	416	25.122	540
15	552	30.197	540
15	654	35.124	540
15	784	40.173	540
15	967	45.131	540
15	1286	55.132	540
15	1488	60.102	540
15	1895	70.162	540
15	2117	75.126	540
16	64	5.189	540
16	136	10.135	540
16	244	15.176	540
16	320	20.196	540
16	416	25.122	540
16	552	30.197	540
16	654	35.124	540
16	784	40.173	540
16	967	45.131	540
16	1286	55.132	540
16	1488	60.102	540
16	1895	70.162	540
16	2117	75.126	540
120	732	37.16642492995	570
120	1017	45.217849929574	570
120	1075	47.199425050716	570
120	1344	55.133849470352	570
120	1538	60.141848149106	570
120	2085	74.141424468208	570
120	2429	79.109424065118	570
120	2529	82.175424886024	570
28	71	5.189	570
28	143	10.135	570
28	251	15.176	570
28	327	20.196	570
28	423	25.122	570
28	559	30.197	570
28	661	35.124	570
28	791	40.173	570
28	974	45.131	570
28	1293	55.132	570
28	1495	60.102	570
28	1902	70.162	570
28	2124	75.126	570
17	67	5.189	542
17	139	10.135	542
17	247	15.176	542
17	323	20.196	542
17	419	25.122	542
17	555	30.197	542
17	657	35.124	542
17	787	40.173	542
17	970	45.131	542
17	1289	55.132	542
17	1491	60.102	542
17	1898	70.162	542
17	2120	75.126	542
124	732	37.16642492995	542
124	1017	45.217849929574	542
124	1075	47.199425050716	542
124	1344	55.133849470352	542
124	1538	60.141848149106	542
124	2085	74.141424468208	542
124	2429	79.109424065118	542
124	2529	82.175424886024	542
123	732	37.16642492995	570
123	1017	45.217849929574	570
123	1075	47.199425050716	570
123	1344	55.133849470352	570
123	1538	60.141848149106	570
123	2085	74.141424468208	570
123	2429	79.109424065118	570
123	2529	82.175424886024	570
122	732	37.16642492995	570
122	1017	45.217849929574	570
122	1075	47.199425050716	570
122	1344	55.133849470352	570
122	1538	60.141848149106	570
122	2085	74.141424468208	570
122	2429	79.109424065118	570
122	2529	82.175424886024	570
121	732	37.16642492995	570
[...]
129	4237	103.3	0
129	4237	103.4	0
129	4237	103.5	0
129	4237	103.6	0
129	4237	103.7	0
129	4237	103.8	0
129	4237	103.9	0
129	4237	104	0
129	4237	104.1	0
129	4237	104.2	0
129	4237	104.3	0
129	4237	104.4	0
129	4237	104.5	0
129	4237	104.6	0
129	4237	104.7	0
129	4237	104.8	0
129	4237	104.9	0
129	4237	105	0
129	4237	105.1	0
129	4378	105.2	122880
129	4378	105.3	0
129	4378	105.4	0
129	4378	105.5	0
129	4378	105.6	0
129	4378	105.7	0
129	4378	105.8	0
129	4378	105.9	0
129	4378	106	0
129	4378	106.1	0
129	4378	106.2	0
129	4378	106.3	0
129	4378	106.4	0
129	4378	106.5	0
129	4378	106.6	0
129	4378	106.7	0
129	4378	106.8	0
129	4378	106.9	0
129	4378	107	0
129	4378	107.1	0
129	4378	107.2	0
129	4378	107.3	0
129	4378	107.4	0
129	4378	107.5	0
129	4378	107.6	0
129	4378	107.7	0
129	4378	107.8	0
129	4378	107.9	0
129	4378	108	0
129	4378	108.1	0
129	4609	108.2	122880
129	4609	108.3	0
129	4609	108.4	0
129	4609	108.5	0
129	4609	108.6	0
129	4609	108.7	0
129	4609	108.8	0
129	4609	108.9	0
129	4609	109	0
129	4609	109.1	0
129	4609	109.2	0
129	4609	109.3	0
129	4609	109.4	0
129	4609	109.5	0
129	4609	109.6	0
129	4609	109.7	0
129	4609	109.8	0
129	4609	109.9	0
129	4609	110	0
129	4609	110.1	0
129	4743	110.2	122880
129	4743	110.3	0
129	4743	110.4	0
129	4743	110.5	0
129	4743	110.6	0
129	4743	110.7	0
129	4743	110.8	0
129	4743	110.9	0
129	4743	111	0
129	4743	111.1	0
129	4743	111.2	0
129	4743	111.3	0
129	4743	111.4	0
129	4743	111.5	0
129	4743	111.6	0
129	4743	111.7	0
129	4743	111.8	0
129	4743	111.9	0
129	4743	112	0
129	4743	112.1	0
129	4743	112.2	0
129	4743	112.3	0
129	4743	112.4	0
129	4743	112.5	0
129	4743	112.6	0
129	4743	112.7	0
129	4743	112.8	0
129	4743	112.9	0
129	4743	113	0
129	4743	113.1	0
129	4800	113.2	81920
129	4989	113.3	81920
129	4989	113.4	0
129	4989	113.5	0
129	4989	113.6	0
129	4989	113.7	0
129	4989	113.8	0
129	4989	113.9	0
129	4989	114	0
129	4989	114.1	0
129	5273	114.2	81920
129	5273	114.3	0
129	5273	114.4	0
129	5273	114.5	0
129	5273	114.6	0
129	5273	114.7	0
129	5273	114.8	0
129	5273	114.9	0
129	5273	115	0
129	5273	115.1	0
129	5273	115.2	0
129	5273	115.3	0
129	5273	115.4	0
129	5273	115.5	0
129	5273	115.6	0
129	5273	115.7	0
129	5273	115.8	0
129	5273	115.9	0
129	5273	116	0
129	5273	116.1	0
129	5273	116.2	0
129	5273	116.3	0
129	5273	116.4	0
129	5273	116.5	0
129	5273	116.6	0
129	5273	116.7	0
129	5273	116.8	0
129	5273	116.9	0
129	5273	117	0
129	5273	117.1	0
129	5273	117.2	0
129	5273	117.3	0
129	5273	117.4	0
129	5273	117.5	0
129	5273	117.6	0
129	5273	117.7	0
129	5273	117.8	0
129	5273	117.9	0
129	5273	118	0
129	5273	118.1	0
129	5502	118.2	163840
129	5502	118.3	0
129	5502	118.4	0
129	5502	118.5	0
129	5502	118.6	0
129	5502	118.7	0
129	5502	118.8	0
129	5502	118.9	0
129	5502	119	0
129	5502	119.1	0
129	5502	119.2	0
129	5502	119.3	0
129	5502	119.4	0
129	5502	119.5	0
129	5502	119.6	0
129	5502	119.7	0
129	5502	119.8	0
129	5502	119.9	0
129	5502	120	0
129	5502	120.1	0
129	5861	120.2	122880
129	5861	120.3	0
129	5861	120.4	0
129	5861	120.5	0
129	5861	120.6	0
129	5861	120.7	0
129	5861	120.8	0
129	5861	120.9	0
129	5861	121	0
129	5861	121.1	0
129	5861	121.2	0
129	5861	121.3	0
129	5861	121.4	0
129	5861	121.5	0
129	5861	121.6	0
129	5861	121.7	0
129	5861	121.8	0
129	5861	121.9	0
129	5861	122	0
129	5861	122.1	0
129	5861	122.2	0
129	5861	122.3	0
129	5861	122.4	0
129	5861	122.5	0
129	5861	122.6	0
129	5861	122.7	0
129	5861	122.8	0
129	5861	122.9	0
129	5861	123	0
129	5861	123.1	0
129	5981	123.2	122880
129	6143	123.3	40960
129	6143	123.4	0
129	6143	123.5	0
129	6143	123.6	0
129	6143	123.7	0
129	6143	123.8	0
129	6143	123.9	0
129	6143	124	0
129	6143	124.1	0
129	6143	124.2	0
129	6143	124.3	0
129	6143	124.4	0
129	6143	124.5	0
129	6143	124.6	0
129	6143	124.7	0
129	6143	124.8	0
129	6143	124.9	0
129	6143	125	0
129	6143	125.1	0
129	6156	125.2	40960
129	6423	125.3	122880
129	6423	125.4	0
129	6423	125.5	0
129	6423	125.6	0
129	6423	125.7	0
129	6423	125.8	0
129	6423	125.9	0
129	6423	126	0
129	6423	126.1	0
129	6423	126.2	0
129	6423	126.3	0
129	6423	126.4	0
129	6423	126.5	0
129	6423	126.6	0
129	6423	126.7	0
129	6423	126.8	0
129	6423	126.9	0
129	6423	127	0
129	6423	127.1	0
129	6423	127.2	0
129	6423	127.3	0
129	6423	127.4	0
129	6423	127.5	0
129	6423	127.6	0
129	6423	127.7	0
129	6423	127.8	0
129	6423	127.9	0
129	6423	128	0
129	6423	128.1	0
129	7014	128.2	40960
129	7014	128.3	0
129	7014	128.4	0
129	7014	128.5	0
129	7014	128.6	0
129	7014	128.7	0
129	7014	128.8	0
129	7014	128.9	0
129	7014	129	0
129	7014	129.1	0
129	7014	129.2	0
129	7014	129.3	0
129	7014	129.4	0
129	7014	129.5	0
129	7014	129.6	0
129	7014	129.7	0
129	7014	129.8	0
129	7014	129.9	0
129	7014	130	0
129	7014	130.1	0
129	7014	130.2	0
129	7014	130.3	0
129	7014	130.4	0
129	7014	130.5	0
129	7014	130.6	0
129	7014	130.7	0
129	7014	130.8	0
129	7014	130.9	0
129	7014	131	0
129	7014	131.1	0
129	7014	131.2	0
129	7014	131.3	0
129	7014	131.4	0
129	7014	131.5	0
129	7014	131.6	0
129	7014	131.7	0
129	7014	131.8	0
129	7014	131.9	0
129	7014	132	0
129	7014	132.1	0
129	7014	132.2	0
129	7014	132.3	0
129	7014	132.4	0
129	7014	132.5	0
129	7014	132.6	0
129	7014	132.7	0
129	7014	132.8	0
129	7014	132.9	0
129	7014	133	0
129	7014	133.1	0
129	7188	133.2	40960
129	7188	133.3	0
129	7188	133.4	0
129	7188	133.5	0
129	7188	133.6	0
129	7188	133.7	0
129	7188	133.8	0
129	7188	133.9	0
129	7188	134	0
129	7188	134.1	0
129	7188	134.2	0
129	7188	134.3	0
129	7188	134.4	0
129	7188	134.5	0
129	7188	134.6	0
129	7188	134.7	0
129	7188	134.8	0
129	7188	134.9	0
129	7188	135	0
129	7188	135.1	0
129	7205	135.2	40960
129	7414	135.3	81920
129	7414	135.4	0
129	7414	135.5	0
129	7414	135.6	0
129	7414	135.7	0
129	7414	135.8	0
129	7414	135.9	0
129	7414	136	0
129	7414	136.1	0
129	7414	136.2	0
129	7414	136.3	0
129	7414	136.4	0
129	7414	136.5	0
129	7414	136.6	0
129	7414	136.7	0
129	7414	136.8	0
129	7414	136.9	0
129	7414	137	0
129	7414	137.1	0
129	7414	137.2	0
129	7414	137.3	0
129	7414	137.4	0
129	7414	137.5	0
129	7414	137.6	0
129	7414	137.7	0
129	7414	137.8	0
129	7414	137.9	0
129	7414	138	0
129	7414	138.1	0
129	8080	138.2	163840
129	8080	138.3	0
129	8080	138.4	0
129	8080	138.5	0
129	8080	138.6	0
129	8080	138.7	0
129	8080	138.8	0
129	8080	138.9	0
129	8080	139	0
129	8080	139.1	0
129	8080	139.2	0
129	8080	139.3	0
129	8080	139.4	0
129	8080	139.5	0
129	8080	139.6	0
129	8080	139.7	0
129	8080	139.8	0
129	8080	139.9	0
129	8080	140	0
129	8080	140.1	0
129	8080	140.2	0
129	8080	140.3	0
129	8080	140.4	0
129	8080	140.5	0
129	8080	140.6	0
129	8080	140.7	0
129	8080	140.8	0
129	8080	140.9	0
129	8080	141	0
129	8080	141.1	0
129	8080	141.2	0
129	8080	141.3	0
129	8080	141.4	0
129	8080	141.5	0
129	8080	141.6	0
129	8080	141.7	0
129	8080	141.8	0
129	8080	141.9	0
129	8080	142	0
129	8080	142.1	0
129	8080	142.2	0
129	8080	142.3	0
129	8080	142.4	0
129	8080	142.5	0
129	8080	142.6	0
129	8080	142.7	0
129	8080	142.8	0
129	8080	142.9	0
129	8080	143	0
129	8080	143.1	0
129	8469	143.2	81920
129	8469	143.3	0
129	8469	143.4	0
129	8469	143.5	0
129	8469	143.6	0
129	8469	143.7	0
129	8469	143.8	0
129	8469	143.9	0
129	8469	144	0
129	8469	144.1	0
129	8469	144.2	0
129	8469	144.3	0
129	8469	144.4	0
129	8469	144.5	0
129	8469	144.6	0
129	8469	144.7	0
129	8469	144.8	0
129	8469	144.9	0
129	8469	145	0
129	8469	145.1	0
129	8469	145.2	0
129	8469	145.3	0
129	8469	145.4	0
129	8469	145.5	0
129	8469	145.6	0
129	8469	145.7	0
129	8469	145.8	0
129	8469	145.9	0
129	8469	146	0
129	8469	146.1	0
129	8469	146.2	0
129	8469	146.3	0
129	8469	146.4	0
129	8469	146.5	0
129	8469	146.6	0
129	8469	146.7	0
129	8469	146.8	0
129	8469	146.9	0
129	8469	147	0
129	8469	147.1	0
129	8469	147.2	0
129	8469	147.3	0
129	8469	147.4	0
129	8469	147.5	0
129	8469	147.6	0
129	8469	147.7	0
129	8469	147.8	0
129	8469	147.9	0
129	8469	148	0
129	8469	148.1	0
129	8926	148.2	245760
129	8926	148.3	0
129	8926	148.4	0
129	8926	148.5	0
129	8926	148.6	0
129	8926	148.7	0
129	8926	148.8	0
129	8926	148.9	0
129	8926	149	0
129	8926	149.1	0
129	8926	149.2	0
129	8926	149.3	0
129	8926	149.4	0
129	8926	149.5	0
129	8926	149.6	0
129	8926	149.7	0
129	8926	149.8	0
129	8926	149.9	0
129	8926	150	0
129	8926	150.1	0
129	8926	150.2	0
129	8926	150.3	0
129	8926	150.4	0
129	8926	150.5	0
129	8926	150.6	0
129	8926	150.7	0
129	8926	150.8	0
129	8926	150.9	0
129	8926	151	0
129	8926	151.1	0
129	8926	151.2	0
129	8926	151.3	0
129	8926	151.4	0
129	8926	151.5	0
129	8926	151.6	0
129	8926	151.7	0
129	8926	151.8	0
129	8926	151.9	0
129	8926	152	0
129	8926	152.1	0
129	8926	152.2	0
129	8926	152.3	0
129	8926	152.4	0
129	8926	152.5	0
129	8926	152.6	0
129	8926	152.7	0
129	8926	152.8	0
129	8926	152.9	0
129	8926	153	0
129	8926	153.1	0
129	9165	153.2	122880
129	9165	153.3	0
129	9165	153.4	0
129	9165	153.5	0
129	9165	153.6	0
129	9165	153.7	0
129	9165	153.8	0
129	9165	153.9	0
129	9165	154	0
129	9165	154.1	0
129	9165	154.2	0
129	9165	154.3	0
129	9165	154.4	0
129	9165	154.5	0
129	9165	154.6	0
129	9165	154.7	0
129	9165	154.8	0
129	9165	154.9	0
129	9165	155	0
129	9165	155.1	0
129	9165	155.2	0
129	9165	155.3	0
129	9165	155.4	0
129	9165	155.5	0
129	9165	155.6	0
129	9165	155.7	0
129	9165	155.8	0
129	9165	155.9	0
129	9165	156	0
129	9165	156.1	0
129	9165	156.2	0
129	9165	156.3	0
129	9165	156.4	0
129	9165	156.5	0
129	9165	156.6	0
129	9165	156.7	0
129	9165	156.8	0
129	9165	156.9	0
129	9165	157	0
129	9165	157.1	0
129	9165	157.2	0
129	9165	157.3	0
129	9165	157.4	0
129	9165	157.5	0
129	9165	157.6	0
129	9165	157.7	0
129	9165	157.8	0
129	9165	157.9	0
129	9165	158	0
129	9165	158.1	0
129	9763	158.2	81920
129	9763	158.3	0
129	9763	158.4	0
129	9763	158.5	0
129	9763	158.6	0
129	9763	158.7	0
129	9763	158.8	0
129	9763	158.9	0
129	9763	159	0
129	9763	159.1	0
129	9763	159.2	0
129	9763	159.3	0
129	9763	159.4	0
129	9763	159.5	0
129	9763	159.6	0
129	9763	159.7	0
129	9763	159.8	0
129	9763	159.9	0
129	9763	160	0
129	9763	160.1	0
129	9763	160.2	0
129	9763	160.3	0
129	9763	160.4	0
129	9763	160.5	0
129	9763	160.6	0
129	9763	160.7	0
129	9763	160.8	0
129	9763	160.9	0
129	9763	161	0
129	9763	161.1	0
129	9763	161.2	0
129	9763	161.3	0
129	9763	161.4	0
129	9763	161.5	0
129	9763	161.6	0
129	9763	161.7	0
129	9763	161.8	0
129	9763	161.9	0
129	9763	162	0
129	9763	162.1	0
129	9763	162.2	0
129	9763	162.3	0
129	9763	162.4	0
129	9763	162.5	0
129	9763	162.6	0
129	9763	162.7	0
129	9763	162.8	0
129	9763	162.9	0
129	9763	163	0
129	9763	163.1	0
129	10062	163.2	81920
129	10062	163.3	0
129	10062	163.4	0
129	10062	163.5	0
129	10062	163.6	0
129	10062	163.7	0
129	10062	163.8	0
129	10062	163.9	0
129	10062	164	0
129	10062	164.1	0
129	10062	164.2	0
129	10062	164.3	0
129	10062	164.4	0
129	10062	164.5	0
129	10062	164.6	0
129	10062	164.7	0
129	10062	164.8	0
129	10062	164.9	0
129	10062	165	0
129	10062	165.1	0
129	10062	165.2	0
129	10062	165.3	0
129	10062	165.4	0
129	10062	165.5	0
129	10062	165.6	0
129	10062	165.7	0
129	10062	165.8	0
129	10062	165.9	0
129	10062	166	0
129	10062	166.1	0
129	10062	166.2	0
129	10062	166.3	0
129	10062	166.4	0
129	10062	166.5	0
129	10062	166.6	0
129	10062	166.7	0
129	10062	166.8	0
129	10062	166.9	0
129	10062	167	0
129	10062	167.1	0
129	10062	167.2	0
129	10062	167.3	0
129	10062	167.4	0
129	10062	167.5	0
129	10062	167.6	0
129	10062	167.7	0
129	10062	167.8	0
129	10062	167.9	0
129	10062	168	0
129	10062	168.1	0
129	10321	168.2	40960
129	10321	168.3	0
129	10321	168.4	0
129	10321	168.5	0
129	10321	168.6	0
129	10321	168.7	0
129	10321	168.8	0
129	10321	168.9	0
129	10321	169	0
129	10321	169.1	0
129	10321	169.2	0
129	10321	169.3	0
129	10321	169.4	0
129	10321	169.5	0
129	10321	169.6	0
129	10321	169.7	0
129	10321	169.8	0
129	10321	169.9	0
129	10321	170	0
129	10321	170.1	0
129	10321	170.2	0
129	10321	170.3	0
129	10321	170.4	0
129	10321	170.5	0
129	10321	170.6	0
129	10321	170.7	0
129	10321	170.8	0
129	10321	170.9	0
129	10321	171	0
129	10321	171.1	0
129	10321	171.2	0
129	10321	171.3	0
129	10321	171.4	0
129	10321	171.5	0
129	10321	171.6	0
129	10321	171.7	0
129	10321	171.8	0
129	10321	171.9	0
129	10321	172	0
129	10321	172.1	0
129	10321	172.2	0
129	10321	172.3	0
129	10321	172.4	0
129	10321	172.5	0
129	10321	172.6	0
129	10321	172.7	0
129	10321	172.8	0
129	10321	172.9	0
129	10321	173	0
129	10321	173.1	0
129	10693	173.2	40960
129	10693	173.3	0
129	10693	173.4	0
129	10693	173.5	0
129	10693	173.6	0
129	10693	173.7	0
129	10693	173.8	0
129	10693	173.9	0
129	10693	174	0
129	10693	174.1	0
129	10693	174.2	0
129	10693	174.3	0
129	10693	174.4	0
129	10693	174.5	0
129	10693	174.6	0
129	10693	174.7	0
129	10693	174.8	0
129	10693	174.9	0
129	10693	175	0
129	10693	175.1	0
129	10693	175.2	0
129	10693	175.3	0
129	10693	175.4	0
129	10693	175.5	0
129	10693	175.6	0
129	10693	175.7	0
129	10693	175.8	0
129	10693	175.9	0
129	10693	176	0
129	10693	176.1	0
129	10693	176.2	0
129	10693	176.3	0
129	10693	176.4	0
129	10693	176.5	0
129	10693	176.6	0
129	10693	176.7	0
129	10693	176.8	0
129	10693	176.9	0
129	10693	177	0
129	10693	177.1	0
129	10693	177.2	0
129	10693	177.3	0
129	10693	177.4	0
129	10693	177.5	0
129	10693	177.6	0
129	10693	177.7	0
129	10693	177.8	0
129	10693	177.9	0
129	10693	178	0
129	10693	178.1	0
129	10843	178.2	40960
129	10843	178.3	0
129	10843	178.4	0
129	10843	178.5	0
129	10843	178.6	0
129	10843	178.7	0
129	10843	178.8	0
129	10843	178.9	0
129	10843	179	0
129	10843	179.1	0
129	10843	179.2	0
129	10843	179.3	0
129	10843	179.4	0
129	10843	179.5	0
129	10843	179.6	0
129	10843	179.7	0
129	10843	179.8	0
129	10843	179.9	0
129	10843	180	0
128	755	38.193	512
128	880	43.163	512
128	888	43.163	512
128	959	45.123424262563	512
128	995	45.158424262563	512
128	1098	48.115	512
128	1194	53.134	512
128	1275	55.106424632632	512
128	1309	55.13242483772	512
128	1316	55.133424632632	512
128	1324	55.133424632632	512
128	1355	55.17042483772	512
128	1458	58.123	512
128	1510	60.102424074553	512
128	1517	60.141424074553	512
128	1525	60.141424074553	512
128	1625	63.121	512
128	1692	63.148849957213	512
128	1801	68.125	512
128	2018	72.180424291491	512
128	2029	72.227424291491	512
128	2044	73.117	512
128	2259	77.182425011055	512
128	2306	77.219849256541	512
128	2324	77.244425011055	512
128	2387	78.177	512
128	2601	83.178	512
128	2609	83.178	512
128	2691	83.265850022096	512
128	2749	84.126424903478	512
128	2762	84.215424903478	512
128	2770	84.215424903478	512
128	3018	88.104	512
128	3112	89.156424798602	512
128	3130	89.196424798602	512
128	3216	90.200849608677	512
128	3327	92.18742409621	512
128	3345	92.20042409621	512
128	3353	92.20042409621	512
128	3440	93.105	512
128	3571	94.135424914858	512
128	3589	94.200424914858	512
128	3597	94.200424914858	512
128	3737	97.143424440773	512
128	3746	97.148424440773	512
128	3806	98.193	512
128	3814	98.193	512
128	3974	102.190424818584	512
128	3992	102.204424818584	512
128	4085	103.187	512
128	4093	103.187	512
128	4237	105.136424517676	512
128	4247	105.173424517676	512
128	4255	105.173424517676	512
128	4378	108.14	512
128	4386	108.14	512
128	4460	108.151848424202	512
128	4609	110.123424313794	512
128	4619	110.171424313794	512
128	4627	110.171424313794	512
128	4743	113.105	512
128	4780	113.155424419162	512
128	4800	113.252424419162	512
128	4808	113.252424419162	512
128	4989	114.185849604811	512
128	5037	114.189849513884	512
128	5273	118.159424713799	512
128	5289	118.161	512
128	5337	118.171424713799	512
128	5345	118.171424713799	512
128	5502	120.126424901629	512
128	5599	120.162424901629	512
128	5642	120.182848901828	512
128	5861	123.144424826741	512
128	5880	123.194	512
128	5967	123.197849115457	512
128	5981	123.237424826741	512
128	6143	125.190424978366	512
128	6156	125.237424978366	512
128	6164	125.237424978366	512
128	6240	125.240848978554	512
128	6423	128.198	512
128	7014	133.169	512
128	7188	135.155425040856	512
128	7205	135.224425040856	512
128	7246	135.242849041251	512
128	7414	138.122	512
128	7533	138.146424937492	512
128	7600	138.168424937492	512
128	7608	138.168424937492	512
128	8080	143.136	512
128	8088	143.136	512
128	8469	148.105	512
128	8477	148.105	512
128	8547	148.118850014866	512
128	8592	148.154425007433	512
128	8605	148.162425007433	512
128	8613	148.162425007433	512
128	8926	153.118425042267	512
128	8944	153.177	512
128	8945	153.192425042267	512
128	9165	158.146	512
128	9173	158.146	512
128	9763	163.111	512
128	9771	163.111	512
128	10062	168.195	512
128	10321	173.138	512
128	10693	178.189	512
151	880	43.163	512
151	1316	55.133424632632	512
151	1517	60.141424074553	512
151	2601	83.178	512
151	2762	84.215424903478	512
151	3345	92.20042409621	512
151	3589	94.200424914858	512
151	3806	98.193	512
151	4085	103.187	512
151	4247	105.173424517676	512
151	4378	108.14	512
151	4619	110.171424313794	512
151	4800	113.252424419162	512
151	5337	118.171424713799	512
151	6156	125.237424978366	512
151	7600	138.168424937492	512
151	8080	143.136	512
151	8469	148.105	512
151	8605	148.162425007433	512
151	9165	158.146	512
151	9763	163.111	512
126	752	38.1	0
126	877	43.1	0
126	959	45.123424262563	0
126	1095	48.1	0
126	1188	53.1	0
126	1275	55.106424632632	0
126	1309	55.13242483772	0
126	1453	58.1	0
126	1510	60.102424074553	0
126	1620	63.1	0
126	1796	68.1	0
126	2018	72.180424291491	0
126	2039	73.1	0
126	2259	77.182425011055	0
126	2333	78.1	0
126	2554	83.1	0
126	2749	84.126424903478	0
126	2974	88.1	0
126	3112	89.156424798602	0
126	3327	92.18742409621	0
126	3433	93.1	0
126	3571	94.135424914858	0
126	3737	97.143424440773	0
126	3794	98.1	0
126	3974	102.190424818584	0
126	4040	103.1	0
126	4237	105.136424517676	0
126	4368	108.1	0
126	4609	110.123424313794	0
126	4734	113.1	0
126	4780	113.155424419162	0
126	5227	118.1	0
126	5273	118.159424713799	0
126	5502	120.126424901629	0
126	5811	123.1	0
126	5861	123.144424826741	0
126	6143	125.190424978366	0
126	6409	128.1	0
126	7000	133.1	0
126	7188	135.155425040856	0
126	7403	138.1	0
126	7533	138.146424937492	0
126	8031	143.1	0
126	8458	148.1	0
126	8592	148.154425007433	0
126	8882	153.1	0
126	8926	153.118425042267	0
126	9155	158.1	0
126	9755	163.1	0
126	10008	168.1	0
126	10314	173.1	0
126	10648	178.1	0
125	752	38.1	1
125	877	43.1	2
125	959	45.123424262563	3
125	1095	48.1	4
125	1188	53.1	5
125	1275	55.106424632632	6
125	1309	55.13242483772	7
125	1453	58.1	8
125	1510	60.102424074553	9
125	1620	63.1	10
125	1796	68.1	11
125	2018	72.180424291491	12
125	2039	73.1	13
125	2259	77.182425011055	14
125	2333	78.1	15
125	2554	83.1	16
125	2749	84.126424903478	17
125	2974	88.1	18
125	3112	89.156424798602	19
125	3327	92.18742409621	20
125	3433	93.1	21
125	3571	94.135424914858	22
125	3737	97.143424440773	23
125	3794	98.1	24
125	3974	102.190424818584	25
125	4040	103.1	26
125	4237	105.136424517676	27
125	4368	108.1	28
125	4609	110.123424313794	29
125	4734	113.1	30
125	4780	113.155424419162	31
125	5227	118.1	32
125	5273	118.159424713799	33
125	5502	120.126424901629	34
125	5811	123.1	35
125	5861	123.144424826741	36
125	6143	125.190424978366	37
125	6409	128.1	38
125	7000	133.1	39
125	7188	135.155425040856	40
125	7403	138.1	41
125	7533	138.146424937492	42
125	8031	143.1	43
125	8458	148.1	44
125	8592	148.154425007433	45
125	8882	153.1	46
125	8926	153.118425042267	47
125	9155	158.1	48
125	9755	163.1	49
125	10008	168.1	50
125	10314	173.1	51
125	10648	178.1	52
127	754	38.1	1
127	879	43.1	2
127	960	45.123424262563	3
127	1097	48.1	4
127	1190	53.1	5
127	1276	55.106424632632	6
127	1310	55.13242483772	7
127	1456	58.1	8
127	1511	60.102424074553	9
127	1623	63.1	10
127	1799	68.1	11
127	2019	72.180424291491	12
127	2042	73.1	13
127	2260	77.182425011055	14
127	2336	78.1	15
127	2558	83.1	16
127	2750	84.126424903478	17
127	2978	88.1	18
127	3113	89.156424798602	19
127	3328	92.18742409621	20
127	3437	93.1	21
127	3572	94.135424914858	22
127	3738	97.143424440773	23
127	3798	98.1	24
127	3975	102.190424818584	25
127	4045	103.1	26
127	4238	105.136424517676	27
127	4373	108.1	28
127	4610	110.123424313794	29
127	4739	113.1	30
127	4781	113.155424419162	31
127	5232	118.1	32
127	5274	118.159424713799	33
127	5503	120.126424901629	34
127	5816	123.1	35
127	5862	123.144424826741	36
127	6144	125.190424978366	37
127	6415	128.1	38
127	7006	133.1	39
127	7189	135.155425040856	40
127	7409	138.1	41
127	7534	138.146424937492	42
127	8037	143.1	43
127	8464	148.1	44
127	8593	148.154425007433	45
127	8888	153.1	46
127	8927	153.118425042267	47
127	9160	158.1	48
127	9760	163.1	49
127	10012	168.1	50
127	10318	173.1	51
127	10652	178.1	52

