file 2390399 1650658989                                         
version 2
run General-0-20220422-21:23:01-3956
attr configname General
attr datetime 20220422-21:23:01
attr experiment General
attr inifile omnetpp.ini
attr iterationvars ""
attr iterationvarsf ""
attr measurement ""
attr network Scenario
attr processid 3956
attr repetition 0
attr replication #0
attr resultdir results
attr runnumber 0
attr seedset 0
param *.node[*].numApps 1
param *.node[*].app[0].typename "\"v2v_caching.veins_inet.VeinsInetSampleApplication\""
param *.node[*].app[0].interface "\"wlan0\""
param *.node[*].wlan[0].opMode "\"p\""
param *.node[*].wlan[0].radio.typename "\"Ieee80211DimensionalRadio\""
param *.node[*].wlan[0].radio.bandName "\"5.9 GHz\""
param *.node[*].wlan[0].radio.channelNumber 3
param *.node[*].wlan[0].radio.transmitter.power 20mW
param *.node[*].wlan[0].radio.bandwidth "10 MHz"
param *.node[*].wlan[*].radio.antenna.mobility.typename "\"AttachedMobility\""
param *.node[*].wlan[*].radio.antenna.mobility.mobilityModule "\"^.^.^.^.mobility\""
param *.node[*].wlan[*].radio.antenna.mobility.offsetX -2.5m
param *.node[*].wlan[*].radio.antenna.mobility.offsetZ 1.5m
param *.node[*].wlan[*].radio.antenna.mobility.constraintAreaMinX 0m
param *.node[*].wlan[*].radio.antenna.mobility.constraintAreaMaxX 0m
param *.node[*].wlan[*].radio.antenna.mobility.constraintAreaMinY 0m
param *.node[*].wlan[*].radio.antenna.mobility.constraintAreaMaxY 0m
param *.node[*].wlan[*].radio.antenna.mobility.constraintAreaMinZ 0m
param *.node[*].wlan[*].radio.antenna.mobility.constraintAreaMaxZ 0m
param *.node[*].ipv4.configurator.typename "\"HostAutoConfigurator\""
param *.node[*].ipv4.configurator.interfaces "\"wlan0\""
param *.node[*].ipv4.configurator.mcastGroups "\"224.0.0.1\""
param *.node[*].mobility.typename "\"VeinsInetMobility\""
param *.manager.updateInterval 0.1s
param *.manager.host "\"localhost\""
param *.manager.port 9999
param *.manager.autoShutdown true
param *.manager.launchConfig "xmldoc(\"Hills.launchd.xml\")"
param *.manager.moduleType "\"v2v_caching.veins_inet.VeinsInetCar\""
param *.radioMedium.obstacleLoss.typename "\"IdealObstacleLoss\""

vector 0 Scenario.node[0].wlan[0].radio radioMode:vector ETV
attr interpolationmode sample-hold
attr source radioModeChanged
attr title "Radio mode, vector"
vector 1 Scenario.node[0].wlan[0].radio radioChannel:vector ETV
attr interpolationmode sample-hold
attr source radioChannelChanged
attr title "Radio channel, vector"
vector 2 Scenario.node[0].wlan[0].radio receptionState:vector ETV
attr interpolationmode sample-hold
attr source receptionStateChanged
attr title "Radio reception state, vector"
vector 3 Scenario.node[0].wlan[0].mac.dcf.recoveryProcedure contentionWindowChanged:vector ETV
attr interpolationmode sample-hold
attr title "contention window, vector"
vector 4 Scenario.node[0].cache requestsReceived:vector ETV
attr interpolationmode none
attr source receive
attr title "requests received, vector"
vector 5 Scenario.node[0].cache hitRate:vector ETV
attr interpolationmode none
attr source hitRate
attr title "hit rate, vector"
vector 6 Scenario.node[0].dataServer requestsReceived:vector ETV
attr interpolationmode none
attr source receive
attr title "requests received, vector"
vector 7 Scenario.node[0].app[0] packetReceived:vector(packetBytes) ETV
attr interpolationmode none
attr source packetReceived
attr title "packets received, vector(packetBytes)"
vector 8 Scenario.node[0].app[0] throughput:vector ETV
attr source throughput(packetReceived)
attr title "throughput, vector"
attr unit bps
vector 9 Scenario.node[0].app[0] RequestReceiveTime:vector ETV
attr interpolationmode none
attr source receiveTime
attr title "request time, vector"
vector 10 Scenario.node[1].wlan[0].radio radioMode:vector ETV
attr interpolationmode sample-hold
attr source radioModeChanged
attr title "Radio mode, vector"
vector 11 Scenario.node[1].wlan[0].radio radioChannel:vector ETV
attr interpolationmode sample-hold
attr source radioChannelChanged
attr title "Radio channel, vector"
vector 12 Scenario.node[1].wlan[0].radio receptionState:vector ETV
attr interpolationmode sample-hold
attr source receptionStateChanged
attr title "Radio reception state, vector"
vector 13 Scenario.node[1].wlan[0].mac.dcf.recoveryProcedure contentionWindowChanged:vector ETV
attr interpolationmode sample-hold
attr title "contention window, vector"
vector 14 Scenario.node[2].wlan[0].radio radioMode:vector ETV
attr interpolationmode sample-hold
attr source radioModeChanged
attr title "Radio mode, vector"
vector 15 Scenario.node[2].wlan[0].radio radioChannel:vector ETV
attr interpolationmode sample-hold
attr source radioChannelChanged
attr title "Radio channel, vector"
vector 16 Scenario.node[2].wlan[0].radio receptionState:vector ETV
attr interpolationmode sample-hold
attr source receptionStateChanged
attr title "Radio reception state, vector"
vector 17 Scenario.node[2].wlan[0].mac.dcf.recoveryProcedure contentionWindowChanged:vector ETV
attr interpolationmode sample-hold
attr title "contention window, vector"
vector 18 Scenario.node[1].cache requestsReceived:vector ETV
attr interpolationmode none
attr source receive
attr title "requests received, vector"
vector 19 Scenario.node[1].cache hitRate:vector ETV
attr interpolationmode none
attr source hitRate
attr title "hit rate, vector"
vector 20 Scenario.node[1].dataServer requestsReceived:vector ETV
attr interpolationmode none
attr source receive
attr title "requests received, vector"
vector 21 Scenario.node[1].app[0] packetReceived:vector(packetBytes) ETV
attr interpolationmode none
attr source packetReceived
attr title "packets received, vector(packetBytes)"
vector 22 Scenario.node[1].app[0] throughput:vector ETV
attr source throughput(packetReceived)
attr title "throughput, vector"
attr unit bps
vector 23 Scenario.node[1].app[0] RequestReceiveTime:vector ETV
attr interpolationmode none
attr source receiveTime
attr title "request time, vector"
vector 24 Scenario.node[0].app[0] packetSent:vector(packetBytes) ETV
attr interpolationmode none
attr source packetSent
attr title "packets sent, vector(packetBytes)"
vector 25 Scenario.node[0].udp packetSent:vector(packetBytes) ETV
attr interpolationmode none
attr source packetSent
attr title "packets sent, vector(packetBytes)"
vector 26 Scenario.node[0].lo[0].lo rcvdPkFromHl:vector(packetBytes) ETV
attr interpolationmode none
attr source packetReceivedFromUpper
attr title "packets received from higher layer, vector(packetBytes)"
vector 27 Scenario.node[0].lo[0].lo passedUpPk:vector(packetBytes) ETV
attr interpolationmode none
attr source packetSentToUpper
attr title "packets passed to higher layer, vector(packetBytes)"
vector 28 Scenario.node[0].wlan[0].mac packetReceivedFromUpper:vector(packetBytes) ETV
attr interpolationmode none
attr title "packets received from upper layer, vector(packetBytes)"
vector 29 Scenario.node[0].wlan[0].mac.dcf.channelAccess.pendingQueue packetPushed:vector(packetBytes) ETV
attr interpolationmode none
attr title "packet pushed, vector(packetBytes)"
vector 30 Scenario.node[0].wlan[0].mac.dcf.channelAccess.pendingQueue queueLength:vector ETV
attr interpolationmode sample-hold
attr source "count(packetPushed) - count(packetPopped) - count(packetRemoved) - count(packetDropped)"
attr title "queue length, vector"
vector 31 Scenario.node[0].wlan[0].mac.dcf.channelAccess.contention backoffPeriodGenerated:vector ETV
attr interpolationmode none
attr title "backoff periods, vector"
vector 32 Scenario.node[0].wlan[0].mac.dcf.channelAccess.contention backoffActive:vector ETV
attr interpolationmode sample-hold
attr source count(backoffStarted)-count(backoffStopped)
attr title "backoff active, vector"
vector 33 Scenario.node[0].udp packetReceived:vector(packetBytes) ETV
attr interpolationmode none
attr source packetReceived
attr title "packets received, vector(packetBytes)"
vector 34 Scenario.node[0].udp passedUpPk:vector(count) ETV
attr interpolationmode none
attr source packetSentToUpper
attr title "packets passed up, vector(count)"
vector 35 Scenario.node[0].wlan[0].mac.dcf.channelAccess.pendingQueue packetPopped:vector(packetBytes) ETV
attr interpolationmode none
attr title "packet popped, vector(packetBytes)"
vector 36 Scenario.node[0].wlan[0].mac.dcf.channelAccess.pendingQueue queueingTime:vector ETV
attr interpolationmode none
attr source queueingTime(packetPopped)
attr title "queueing times, vector"
attr unit s
vector 37 Scenario.node[0].wlan[0].mac.dcf.channelAccess.inProgressFrames queueLength:vector ETV
attr interpolationmode sample-hold
attr source "count(packetEnqueued) - count(packetDequeued)"
attr title "queue length, vector"
vector 38 Scenario.node[0].wlan[0].mac.dcf datarateSelected:vector ETV
attr interpolationmode none
attr title "datarates selected, vector"
vector 39 Scenario.node[0].wlan[0].mac packetSentToLower:vector(packetBytes) ETV
attr interpolationmode none
attr title "packets sent to lower layer, vector(packetBytes)"
vector 40 Scenario.node[0].wlan[0].mac.dcf frameSequenceActive:vector ETV
attr interpolationmode sample-hold
attr source count(frameSequenceStarted)-count(frameSequenceFinished)
attr title "frame sequence active, vector"
vector 41 Scenario.node[0].wlan[0].radio transmissionState:vector ETV
attr interpolationmode sample-hold
attr source transmissionStateChanged
attr title "Radio transmission state, vector"
vector 42 Scenario.node[0].wlan[0].mac.dcf packetSentToPeer:vector(packetBytes) ETV
attr interpolationmode none
attr title "packets sent, vector(packetBytes)"
vector 43 Scenario.node[0].wlan[0].mac.dcf packetSentToPeerMulticast:vector(packetBytes) ETV
attr interpolationmode none
attr source ieee80211Multicast(packetSentToPeer)
attr title "packets sent: multicast, vector(packetBytes)"
vector 44 Scenario.node[0].wlan[0].mac.dcf packetSentToPeerWithoutRetry:vector(packetBytes) ETV
attr interpolationmode none
attr source ieee80211NotRetry(packetSentToPeer)
attr title "packets sent: without retry, vector(packetBytes)"
vector 45 Scenario.node[0].wlan[0].mac.dcf.channelAccess.inProgressFrames queueingTime:vector ETV
attr interpolationmode none
attr source queueingTime(packetDequeued)
attr title "queueing times, vector"
vector 46 Scenario.node[3].wlan[0].radio radioMode:vector ETV
attr interpolationmode sample-hold
attr source radioModeChanged
attr title "Radio mode, vector"
vector 47 Scenario.node[3].wlan[0].radio radioChannel:vector ETV
attr interpolationmode sample-hold
attr source radioChannelChanged
attr title "Radio channel, vector"
vector 48 Scenario.node[3].wlan[0].radio receptionState:vector ETV
attr interpolationmode sample-hold
attr source receptionStateChanged
attr title "Radio reception state, vector"
vector 49 Scenario.node[3].wlan[0].mac.dcf.recoveryProcedure contentionWindowChanged:vector ETV
attr interpolationmode sample-hold
attr title "contention window, vector"
vector 50 Scenario.node[2].cache requestsReceived:vector ETV
attr interpolationmode none
attr source receive
attr title "requests received, vector"
vector 51 Scenario.node[2].cache hitRate:vector ETV
attr interpolationmode none
attr source hitRate
attr title "hit rate, vector"
vector 52 Scenario.node[2].dataServer requestsReceived:vector ETV
attr interpolationmode none
attr source receive
attr title "requests received, vector"
vector 53 Scenario.node[2].app[0] packetReceived:vector(packetBytes) ETV
attr interpolationmode none
attr source packetReceived
attr title "packets received, vector(packetBytes)"
vector 54 Scenario.node[2].app[0] throughput:vector ETV
attr source throughput(packetReceived)
attr title "throughput, vector"
attr unit bps
vector 55 Scenario.node[2].app[0] RequestReceiveTime:vector ETV
attr interpolationmode none
attr source receiveTime
attr title "request time, vector"
vector 56 Scenario.node[1].app[0] packetSent:vector(packetBytes) ETV
attr interpolationmode none
attr source packetSent
attr title "packets sent, vector(packetBytes)"
vector 57 Scenario.node[1].udp packetSent:vector(packetBytes) ETV
attr interpolationmode none
attr source packetSent
attr title "packets sent, vector(packetBytes)"
vector 58 Scenario.node[1].lo[0].lo rcvdPkFromHl:vector(packetBytes) ETV
attr interpolationmode none
attr source packetReceivedFromUpper
attr title "packets received from higher layer, vector(packetBytes)"
vector 59 Scenario.node[1].lo[0].lo passedUpPk:vector(packetBytes) ETV
attr interpolationmode none
attr source packetSentToUpper
attr title "packets passed to higher layer, vector(packetBytes)"
vector 60 Scenario.node[1].wlan[0].mac packetReceivedFromUpper:vector(packetBytes) ETV
attr interpolationmode none
attr title "packets received from upper layer, vector(packetBytes)"
vector 61 Scenario.node[1].wlan[0].mac.dcf.channelAccess.pendingQueue packetPushed:vector(packetBytes) ETV
attr interpolationmode none
attr title "packet pushed, vector(packetBytes)"
vector 62 Scenario.node[1].wlan[0].mac.dcf.channelAccess.pendingQueue queueLength:vector ETV
attr interpolationmode sample-hold
attr source "count(packetPushed) - count(packetPopped) - count(packetRemoved) - count(packetDropped)"
attr title "queue length, vector"
vector 63 Scenario.node[1].wlan[0].mac.dcf.channelAccess.contention backoffPeriodGenerated:vector ETV
attr interpolationmode none
attr title "backoff periods, vector"
vector 64 Scenario.node[1].wlan[0].mac.dcf.channelAccess.contention backoffActive:vector ETV
attr interpolationmode sample-hold
attr source count(backoffStarted)-count(backoffStopped)
attr title "backoff active, vector"
vector 65 Scenario.node[1].udp packetReceived:vector(packetBytes) ETV
attr interpolationmode none
attr source packetReceived
attr title "packets received, vector(packetBytes)"
vector 66 Scenario.node[1].udp passedUpPk:vector(count) ETV
attr interpolationmode none
attr source packetSentToUpper
attr title "packets passed up, vector(count)"
vector 67 Scenario.node[1].wlan[0].mac.dcf.channelAccess.pendingQueue packetPopped:vector(packetBytes) ETV
attr interpolationmode none
attr title "packet popped, vector(packetBytes)"
vector 68 Scenario.node[1].wlan[0].mac.dcf.channelAccess.pendingQueue queueingTime:vector ETV
attr interpolationmode none
attr source queueingTime(packetPopped)
attr title "queueing times, vector"
attr unit s
vector 69 Scenario.node[1].wlan[0].mac.dcf.channelAccess.inProgressFrames queueLength:vector ETV
attr interpolationmode sample-hold
attr source "count(packetEnqueued) - count(packetDequeued)"
attr title "queue length, vector"
vector 70 Scenario.node[1].wlan[0].mac.dcf datarateSelected:vector ETV
attr interpolationmode none
attr title "datarates selected, vector"
vector 71 Scenario.node[1].wlan[0].mac packetSentToLower:vector(packetBytes) ETV
attr interpolationmode none
attr title "packets sent to lower layer, vector(packetBytes)"
vector 72 Scenario.node[1].wlan[0].mac.dcf frameSequenceActive:vector ETV
attr interpolationmode sample-hold
attr source count(frameSequenceStarted)-count(frameSequenceFinished)
attr title "frame sequence active, vector"
vector 73 Scenario.node[1].wlan[0].radio transmissionState:vector ETV
attr interpolationmode sample-hold
attr source transmissionStateChanged
attr title "Radio transmission state, vector"
vector 74 Scenario.node[1].wlan[0].mac.dcf packetSentToPeer:vector(packetBytes) ETV
attr interpolationmode none
attr title "packets sent, vector(packetBytes)"
vector 75 Scenario.node[1].wlan[0].mac.dcf packetSentToPeerMulticast:vector(packetBytes) ETV
attr interpolationmode none
attr source ieee80211Multicast(packetSentToPeer)
attr title "packets sent: multicast, vector(packetBytes)"
vector 76 Scenario.node[1].wlan[0].mac.dcf packetSentToPeerWithoutRetry:vector(packetBytes) ETV
attr interpolationmode none
attr source ieee80211NotRetry(packetSentToPeer)
attr title "packets sent: without retry, vector(packetBytes)"
vector 77 Scenario.node[1].wlan[0].mac.dcf.channelAccess.inProgressFrames queueingTime:vector ETV
attr interpolationmode none
attr source queueingTime(packetDequeued)
attr title "queueing times, vector"
vector 78 Scenario.node[3].wlan[0].mac packetReceivedFromLower:vector(packetBytes) ETV
attr interpolationmode none
attr title "packets received from lower layer, vector(packetBytes)"
vector 79 Scenario.node[3].wlan[0].mac.dcf packetReceivedFromPeer:vector(packetBytes) ETV
attr interpolationmode none
attr title "packets received, vector(packetBytes)"
vector 80 Scenario.node[3].wlan[0].mac.dcf packetReceivedFromPeerMulticast:vector(packetBytes) ETV
attr interpolationmode none
attr source ieee80211Multicast(packetReceivedFromPeer)
attr title "packets received: multicast, vector(packetBytes)"
vector 81 Scenario.node[3].wlan[0].mac.dcf packetReceivedFromPeerWithoutRetry:vector(packetBytes) ETV
attr interpolationmode none
attr source ieee80211NotRetry(packetReceivedFromPeer)
attr title "packets received: without retry, vector(packetBytes)"
vector 82 Scenario.node[3].wlan[0].mac packetSentToUpper:vector(packetBytes) ETV
attr interpolationmode none
attr title "packets sent to upper layer, vector(packetBytes)"
vector 83 Scenario.node[3].udp packetReceived:vector(packetBytes) ETV
attr interpolationmode none
attr source packetReceived
attr title "packets received, vector(packetBytes)"
vector 84 Scenario.node[3].udp passedUpPk:vector(count) ETV
attr interpolationmode none
attr source packetSentToUpper
attr title "packets passed up, vector(count)"
vector 85 Scenario.node[3].app[0] packetReceived:vector(packetBytes) ETV
attr interpolationmode none
attr source packetReceived
attr title "packets received, vector(packetBytes)"
vector 86 Scenario.node[3].app[0] throughput:vector ETV
attr source throughput(packetReceived)
attr title "throughput, vector"
attr unit bps
vector 87 Scenario.node[3].cache requestsReceived:vector ETV
attr interpolationmode none
attr source receive
attr title "requests received, vector"
vector 88 Scenario.node[3].cache hitRate:vector ETV
attr interpolationmode none
attr source hitRate
attr title "hit rate, vector"
vector 89 Scenario.node[3].dataServer requestsReceived:vector ETV
attr interpolationmode none
attr source receive
attr title "requests received, vector"
vector 90 Scenario.node[3].app[0] packetSent:vector(packetBytes) ETV
attr interpolationmode none
attr source packetSent
attr title "packets sent, vector(packetBytes)"
vector 91 Scenario.node[3].udp packetSent:vector(packetBytes) ETV
attr interpolationmode none
attr source packetSent
attr title "packets sent, vector(packetBytes)"
vector 92 Scenario.node[3].lo[0].lo rcvdPkFromHl:vector(packetBytes) ETV
attr interpolationmode none
attr source packetReceivedFromUpper
attr title "packets received from higher layer, vector(packetBytes)"
vector 93 Scenario.node[3].lo[0].lo passedUpPk:vector(packetBytes) ETV
attr interpolationmode none
attr source packetSentToUpper
attr title "packets passed to higher layer, vector(packetBytes)"
vector 94 Scenario.node[3].wlan[0].mac packetReceivedFromUpper:vector(packetBytes) ETV
attr interpolationmode none
attr title "packets received from upper layer, vector(packetBytes)"
vector 95 Scenario.node[3].wlan[0].mac.dcf.channelAccess.pendingQueue packetPushed:vector(packetBytes) ETV
attr interpolationmode none
attr title "packet pushed, vector(packetBytes)"
vector 96 Scenario.node[3].wlan[0].mac.dcf.channelAccess.pendingQueue queueLength:vector ETV
attr interpolationmode sample-hold
attr source "count(packetPushed) - count(packetPopped) - count(packetRemoved) - count(packetDropped)"
attr title "queue length, vector"
vector 97 Scenario.node[3].wlan[0].mac.dcf.channelAccess.contention backoffPeriodGenerated:vector ETV
attr interpolationmode none
attr title "backoff periods, vector"
vector 98 Scenario.node[3].wlan[0].mac.dcf.channelAccess.contention backoffActive:vector ETV
attr interpolationmode sample-hold
attr source count(backoffStarted)-count(backoffStopped)
attr title "backoff active, vector"
vector 99 Scenario.node[3].wlan[0].mac.dcf.channelAccess.pendingQueue packetPopped:vector(packetBytes) ETV
attr interpolationmode none
attr title "packet popped, vector(packetBytes)"
vector 100 Scenario.node[3].wlan[0].mac.dcf.channelAccess.pendingQueue queueingTime:vector ETV
attr interpolationmode none
attr source queueingTime(packetPopped)
attr title "queueing times, vector"
attr unit s
vector 101 Scenario.node[3].wlan[0].mac.dcf.channelAccess.inProgressFrames queueLength:vector ETV
attr interpolationmode sample-hold
attr source "count(packetEnqueued) - count(packetDequeued)"
attr title "queue length, vector"
vector 102 Scenario.node[3].wlan[0].mac.dcf datarateSelected:vector ETV
attr interpolationmode none
attr title "datarates selected, vector"
vector 103 Scenario.node[3].wlan[0].mac packetSentToLower:vector(packetBytes) ETV
attr interpolationmode none
attr title "packets sent to lower layer, vector(packetBytes)"
vector 104 Scenario.node[3].wlan[0].mac.dcf frameSequenceActive:vector ETV
attr interpolationmode sample-hold
attr source count(frameSequenceStarted)-count(frameSequenceFinished)
attr title "frame sequence active, vector"
vector 105 Scenario.node[3].wlan[0].radio transmissionState:vector ETV
attr interpolationmode sample-hold
attr source transmissionStateChanged
attr title "Radio transmission state, vector"
vector 106 Scenario.node[3].wlan[0].mac.dcf packetSentToPeer:vector(packetBytes) ETV
attr interpolationmode none
attr title "packets sent, vector(packetBytes)"
vector 107 Scenario.node[3].wlan[0].mac.dcf packetSentToPeerMulticast:vector(packetBytes) ETV
attr interpolationmode none
attr source ieee80211Multicast(packetSentToPeer)
attr title "packets sent: multicast, vector(packetBytes)"
vector 108 Scenario.node[3].wlan[0].mac.dcf packetSentToPeerWithoutRetry:vector(packetBytes) ETV
attr interpolationmode none
attr source ieee80211NotRetry(packetSentToPeer)
attr title "packets sent: without retry, vector(packetBytes)"
vector 109 Scenario.node[3].wlan[0].mac.dcf.channelAccess.inProgressFrames queueingTime:vector ETV
attr interpolationmode none
attr source queueingTime(packetDequeued)
attr title "queueing times, vector"
vector 110 Scenario.node[1].wlan[0].mac packetReceivedFromLower:vector(packetBytes) ETV
attr interpolationmode none
attr title "packets received from lower layer, vector(packetBytes)"
vector 111 Scenario.node[1].wlan[0].mac.dcf packetReceivedFromPeer:vector(packetBytes) ETV
attr interpolationmode none
attr title "packets received, vector(packetBytes)"
vector 112 Scenario.node[1].wlan[0].mac.dcf packetReceivedFromPeerMulticast:vector(packetBytes) ETV
attr interpolationmode none
attr source ieee80211Multicast(packetReceivedFromPeer)
attr title "packets received: multicast, vector(packetBytes)"
vector 113 Scenario.node[1].wlan[0].mac.dcf packetReceivedFromPeerWithoutRetry:vector(packetBytes) ETV
attr interpolationmode none
attr source ieee80211NotRetry(packetReceivedFromPeer)
attr title "packets received: without retry, vector(packetBytes)"
vector 114 Scenario.node[1].wlan[0].mac packetSentToUpper:vector(packetBytes) ETV
attr interpolationmode none
attr title "packets sent to upper layer, vector(packetBytes)"
vector 115 Scenario.node[4].wlan[0].radio radioMode:vector ETV
attr interpolationmode sample-hold
attr source radioModeChanged
attr title "Radio mode, vector"
vector 116 Scenario.node[4].wlan[0].radio radioChannel:vector ETV
attr interpolationmode sample-hold
attr source radioChannelChanged
attr title "Radio channel, vector"
vector 117 Scenario.node[4].wlan[0].radio receptionState:vector ETV
attr interpolationmode sample-hold
attr source receptionStateChanged
attr title "Radio reception state, vector"
vector 118 Scenario.node[4].wlan[0].mac.dcf.recoveryProcedure contentionWindowChanged:vector ETV
attr interpolationmode sample-hold
attr title "contention window, vector"
vector 119 Scenario.node[3].app[0] RequestReceiveTime:vector ETV
attr interpolationmode none
attr source receiveTime
attr title "request time, vector"
vector 120 Scenario.node[2].app[0] packetSent:vector(packetBytes) ETV
attr interpolationmode none
attr source packetSent
attr title "packets sent, vector(packetBytes)"
vector 121 Scenario.node[2].udp packetSent:vector(packetBytes) ETV
attr interpolationmode none
attr source packetSent
attr title "packets sent, vector(packetBytes)"
vector 122 Scenario.node[2].lo[0].lo rcvdPkFromHl:vector(packetBytes) ETV
attr interpolationmode none
attr source packetReceivedFromUpper
attr title "packets received from higher layer, vector(packetBytes)"
vector 123 Scenario.node[2].lo[0].lo passedUpPk:vector(packetBytes) ETV
attr interpolationmode none
attr source packetSentToUpper
attr title "packets passed to higher layer, vector(packetBytes)"
vector 124 Scenario.node[2].wlan[0].mac packetReceivedFromUpper:vector(packetBytes) ETV
attr interpolationmode none
attr title "packets received from upper layer, vector(packetBytes)"
vector 125 Scenario.node[2].wlan[0].mac.dcf.channelAccess.pendingQueue packetPushed:vector(packetBytes) ETV
attr interpolationmode none
attr title "packet pushed, vector(packetBytes)"
vector 126 Scenario.node[2].wlan[0].mac.dcf.channelAccess.pendingQueue queueLength:vector ETV
attr interpolationmode sample-hold
attr source "count(packetPushed) - count(packetPopped) - count(packetRemoved) - count(packetDropped)"
attr title "queue length, vector"
vector 127 Scenario.node[2].wlan[0].mac.dcf.channelAccess.contention backoffPeriodGenerated:vector ETV
attr interpolationmode none
attr title "backoff periods, vector"
vector 128 Scenario.node[2].wlan[0].mac.dcf.channelAccess.contention backoffActive:vector ETV
attr interpolationmode sample-hold
attr source count(backoffStarted)-count(backoffStopped)
attr title "backoff active, vector"
vector 129 Scenario.node[2].udp packetReceived:vector(packetBytes) ETV
attr interpolationmode none
attr source packetReceived
attr title "packets received, vector(packetBytes)"
vector 130 Scenario.node[2].udp passedUpPk:vector(count) ETV
attr interpolationmode none
attr source packetSentToUpper
attr title "packets passed up, vector(count)"
vector 131 Scenario.node[2].wlan[0].mac.dcf.channelAccess.pendingQueue packetPopped:vector(packetBytes) ETV
attr interpolationmode none
attr title "packet popped, vector(packetBytes)"
vector 132 Scenario.node[2].wlan[0].mac.dcf.channelAccess.pendingQueue queueingTime:vector ETV
attr interpolationmode none
attr source queueingTime(packetPopped)
attr title "queueing times, vector"
attr unit s
vector 133 Scenario.node[2].wlan[0].mac.dcf.channelAccess.inProgressFrames queueLength:vector ETV
attr interpolationmode sample-hold
attr source "count(packetEnqueued) - count(packetDequeued)"
attr title "queue length, vector"
vector 134 Scenario.node[2].wlan[0].mac.dcf datarateSelected:vector ETV
attr interpolationmode none
attr title "datarates selected, vector"
vector 135 Scenario.node[2].wlan[0].mac packetSentToLower:vector(packetBytes) ETV
attr interpolationmode none
attr title "packets sent to lower layer, vector(packetBytes)"
vector 136 Scenario.node[2].wlan[0].mac.dcf frameSequenceActive:vector ETV
attr interpolationmode sample-hold
attr source count(frameSequenceStarted)-count(frameSequenceFinished)
attr title "frame sequence active, vector"
vector 137 Scenario.node[2].wlan[0].radio transmissionState:vector ETV
attr interpolationmode sample-hold
attr source transmissionStateChanged
attr title "Radio transmission state, vector"
vector 138 Scenario.node[2].wlan[0].mac.dcf packetSentToPeer:vector(packetBytes) ETV
attr interpolationmode none
attr title "packets sent, vector(packetBytes)"
vector 139 Scenario.node[2].wlan[0].mac.dcf packetSentToPeerMulticast:vector(packetBytes) ETV
attr interpolationmode none
attr source ieee80211Multicast(packetSentToPeer)
attr title "packets sent: multicast, vector(packetBytes)"
vector 140 Scenario.node[2].wlan[0].mac.dcf packetSentToPeerWithoutRetry:vector(packetBytes) ETV
attr interpolationmode none
attr source ieee80211NotRetry(packetSentToPeer)
attr title "packets sent: without retry, vector(packetBytes)"
vector 141 Scenario.node[2].wlan[0].mac.dcf.channelAccess.inProgressFrames queueingTime:vector ETV
attr interpolationmode none
attr source queueingTime(packetDequeued)
attr title "queueing times, vector"
vector 142 Scenario.node[4].wlan[0].mac packetReceivedFromLower:vector(packetBytes) ETV
attr interpolationmode none
attr title "packets received from lower layer, vector(packetBytes)"
vector 143 Scenario.node[4].wlan[0].mac.dcf packetReceivedFromPeer:vector(packetBytes) ETV
attr interpolationmode none
attr title "packets received, vector(packetBytes)"
vector 144 Scenario.node[4].wlan[0].mac.dcf packetReceivedFromPeerMulticast:vector(packetBytes) ETV
attr interpolationmode none
attr source ieee80211Multicast(packetReceivedFromPeer)
attr title "packets received: multicast, vector(packetBytes)"
vector 145 Scenario.node[4].wlan[0].mac.dcf packetReceivedFromPeerWithoutRetry:vector(packetBytes) ETV
attr interpolationmode none
attr source ieee80211NotRetry(packetReceivedFromPeer)
attr title "packets received: without retry, vector(packetBytes)"
vector 146 Scenario.node[4].wlan[0].mac packetSentToUpper:vector(packetBytes) ETV
attr interpolationmode none
attr title "packets sent to upper layer, vector(packetBytes)"
vector 147 Scenario.node[4].udp packetReceived:vector(packetBytes) ETV
attr interpolationmode none
attr source packetReceived
attr title "packets received, vector(packetBytes)"
vector 148 Scenario.node[4].udp passedUpPk:vector(count) ETV
attr interpolationmode none
attr source packetSentToUpper
attr title "packets passed up, vector(count)"
vector 149 Scenario.node[4].app[0] packetReceived:vector(packetBytes) ETV
attr interpolationmode none
attr source packetReceived
attr title "packets received, vector(packetBytes)"
vector 150 Scenario.node[4].app[0] throughput:vector ETV
attr source throughput(packetReceived)
attr title "throughput, vector"
attr unit bps
vector 151 Scenario.node[4].cache requestsReceived:vector ETV
attr interpolationmode none
attr source receive
attr title "requests received, vector"
vector 152 Scenario.node[4].cache hitRate:vector ETV
attr interpolationmode none
attr source hitRate
attr title "hit rate, vector"
vector 153 Scenario.node[4].dataServer requestsReceived:vector ETV
attr interpolationmode none
attr source receive
attr title "requests received, vector"
vector 154 Scenario.node[4].app[0] packetSent:vector(packetBytes) ETV
attr interpolationmode none
attr source packetSent
attr title "packets sent, vector(packetBytes)"
vector 155 Scenario.node[4].udp packetSent:vector(packetBytes) ETV
attr interpolationmode none
attr source packetSent
attr title "packets sent, vector(packetBytes)"
vector 156 Scenario.node[4].lo[0].lo rcvdPkFromHl:vector(packetBytes) ETV
attr interpolationmode none
attr source packetReceivedFromUpper
attr title "packets received from higher layer, vector(packetBytes)"
vector 157 Scenario.node[4].lo[0].lo passedUpPk:vector(packetBytes) ETV
attr interpolationmode none
attr source packetSentToUpper
attr title "packets passed to higher layer, vector(packetBytes)"
vector 158 Scenario.node[4].wlan[0].mac packetReceivedFromUpper:vector(packetBytes) ETV
attr interpolationmode none
attr title "packets received from upper layer, vector(packetBytes)"
vector 159 Scenario.node[4].wlan[0].mac.dcf.channelAccess.pendingQueue packetPushed:vector(packetBytes) ETV
attr interpolationmode none
attr title "packet pushed, vector(packetBytes)"
vector 160 Scenario.node[4].wlan[0].mac.dcf.channelAccess.pendingQueue queueLength:vector ETV
attr interpolationmode sample-hold
attr source "count(packetPushed) - count(packetPopped) - count(packetRemoved) - count(packetDropped)"
attr title "queue length, vector"
vector 161 Scenario.node[4].wlan[0].mac.dcf.channelAccess.contention backoffPeriodGenerated:vector ETV
attr interpolationmode none
attr title "backoff periods, vector"
vector 162 Scenario.node[4].wlan[0].mac.dcf.channelAccess.contention backoffActive:vector ETV
attr interpolationmode sample-hold
attr source count(backoffStarted)-count(backoffStopped)
attr title "backoff active, vector"
vector 163 Scenario.node[4].wlan[0].mac.dcf.channelAccess.pendingQueue packetPopped:vector(packetBytes) ETV
attr interpolationmode none
attr title "packet popped, vector(packetBytes)"
vector 164 Scenario.node[4].wlan[0].mac.dcf.channelAccess.pendingQueue queueingTime:vector ETV
attr interpolationmode none
attr source queueingTime(packetPopped)
attr title "queueing times, vector"
attr unit s
vector 165 Scenario.node[4].wlan[0].mac.dcf.channelAccess.inProgressFrames queueLength:vector ETV
attr interpolationmode sample-hold
attr source "count(packetEnqueued) - count(packetDequeued)"
attr title "queue length, vector"
vector 166 Scenario.node[4].wlan[0].mac.dcf datarateSelected:vector ETV
attr interpolationmode none
attr title "datarates selected, vector"
vector 167 Scenario.node[4].wlan[0].mac packetSentToLower:vector(packetBytes) ETV
attr interpolationmode none
attr title "packets sent to lower layer, vector(packetBytes)"
vector 168 Scenario.node[4].wlan[0].mac.dcf frameSequenceActive:vector ETV
attr interpolationmode sample-hold
attr source count(frameSequenceStarted)-count(frameSequenceFinished)
attr title "frame sequence active, vector"
vector 169 Scenario.node[4].wlan[0].radio transmissionState:vector ETV
attr interpolationmode sample-hold
attr source transmissionStateChanged
attr title "Radio transmission state, vector"
vector 170 Scenario.node[4].wlan[0].mac.dcf packetSentToPeer:vector(packetBytes) ETV
attr interpolationmode none
attr title "packets sent, vector(packetBytes)"
vector 171 Scenario.node[4].wlan[0].mac.dcf packetSentToPeerMulticast:vector(packetBytes) ETV
attr interpolationmode none
attr source ieee80211Multicast(packetSentToPeer)
attr title "packets sent: multicast, vector(packetBytes)"
vector 172 Scenario.node[4].wlan[0].mac.dcf packetSentToPeerWithoutRetry:vector(packetBytes) ETV
attr interpolationmode none
attr source ieee80211NotRetry(packetSentToPeer)
attr title "packets sent: without retry, vector(packetBytes)"
vector 173 Scenario.node[4].wlan[0].mac.dcf.channelAccess.inProgressFrames queueingTime:vector ETV
attr interpolationmode none
attr source queueingTime(packetDequeued)
attr title "queueing times, vector"
vector 174 Scenario.node[2].wlan[0].mac packetReceivedFromLower:vector(packetBytes) ETV
attr interpolationmode none
attr title "packets received from lower layer, vector(packetBytes)"
vector 175 Scenario.node[2].wlan[0].mac.dcf packetReceivedFromPeer:vector(packetBytes) ETV
attr interpolationmode none
attr title "packets received, vector(packetBytes)"
vector 176 Scenario.node[2].wlan[0].mac.dcf packetReceivedFromPeerMulticast:vector(packetBytes) ETV
attr interpolationmode none
attr source ieee80211Multicast(packetReceivedFromPeer)
attr title "packets received: multicast, vector(packetBytes)"
vector 177 Scenario.node[2].wlan[0].mac.dcf packetReceivedFromPeerWithoutRetry:vector(packetBytes) ETV
attr interpolationmode none
attr source ieee80211NotRetry(packetReceivedFromPeer)
attr title "packets received: without retry, vector(packetBytes)"
vector 178 Scenario.node[2].wlan[0].mac packetSentToUpper:vector(packetBytes) ETV
attr interpolationmode none
attr title "packets sent to upper layer, vector(packetBytes)"
vector 179 Scenario.node[5].wlan[0].radio radioMode:vector ETV
attr interpolationmode sample-hold
attr source radioModeChanged
attr title "Radio mode, vector"
vector 180 Scenario.node[5].wlan[0].radio radioChannel:vector ETV
attr interpolationmode sample-hold
attr source radioChannelChanged
attr title "Radio channel, vector"
vector 181 Scenario.node[5].wlan[0].radio receptionState:vector ETV
attr interpolationmode sample-hold
attr source receptionStateChanged
attr title "Radio reception state, vector"
vector 182 Scenario.node[5].wlan[0].mac.dcf.recoveryProcedure contentionWindowChanged:vector ETV
attr interpolationmode sample-hold
attr title "contention window, vector"
vector 183 Scenario.node[4].app[0] RequestReceiveTime:vector ETV
attr interpolationmode none
attr source receiveTime
attr title "request time, vector"
vector 184 Scenario.node[5].cache requestsReceived:vector ETV
attr interpolationmode none
attr source receive
attr title "requests received, vector"
vector 185 Scenario.node[5].cache hitRate:vector ETV
attr interpolationmode none
attr source hitRate
attr title "hit rate, vector"
vector 186 Scenario.node[5].dataServer requestsReceived:vector ETV
attr interpolationmode none
attr source receive
attr title "requests received, vector"
vector 187 Scenario.node[5].app[0] packetReceived:vector(packetBytes) ETV
attr interpolationmode none
attr source packetReceived
attr title "packets received, vector(packetBytes)"
vector 188 Scenario.node[5].app[0] throughput:vector ETV
attr source throughput(packetReceived)
attr title "throughput, vector"
attr unit bps
vector 189 Scenario.node[5].app[0] RequestReceiveTime:vector ETV
attr interpolationmode none
attr source receiveTime
attr title "request time, vector"
vector 190 Scenario.node[0].cache requestsAnswered:vector ETV
attr interpolationmode none
attr source answer
attr title "requests answered, vector"
vector 191 Scenario.node[1].cache requestsAnswered:vector ETV
attr interpolationmode none
attr source answer
attr title "requests answered, vector"
vector 192 Scenario.node[5].wlan[0].mac packetReceivedFromLower:vector(packetBytes) ETV
attr interpolationmode none
attr title "packets received from lower layer, vector(packetBytes)"
vector 193 Scenario.node[5].wlan[0].mac.dcf packetReceivedFromPeer:vector(packetBytes) ETV
attr interpolationmode none
attr title "packets received, vector(packetBytes)"
vector 194 Scenario.node[5].wlan[0].mac.dcf packetReceivedFromPeerMulticast:vector(packetBytes) ETV
attr interpolationmode none
attr source ieee80211Multicast(packetReceivedFromPeer)
attr title "packets received: multicast, vector(packetBytes)"
vector 195 Scenario.node[5].wlan[0].mac.dcf packetReceivedFromPeerWithoutRetry:vector(packetBytes) ETV
attr interpolationmode none
attr source ieee80211NotRetry(packetReceivedFromPeer)
attr title "packets received: without retry, vector(packetBytes)"
vector 196 Scenario.node[5].wlan[0].mac packetSentToUpper:vector(packetBytes) ETV
attr interpolationmode none
attr title "packets sent to upper layer, vector(packetBytes)"
vector 197 Scenario.node[5].udp packetReceived:vector(packetBytes) ETV
attr interpolationmode none
attr source packetReceived
attr title "packets received, vector(packetBytes)"
vector 198 Scenario.node[5].udp passedUpPk:vector(count) ETV
attr interpolationmode none
attr source packetSentToUpper
attr title "packets passed up, vector(count)"
vector 199 Scenario.node[3].cache requestsAnswered:vector ETV
attr interpolationmode none
attr source answer
attr title "requests answered, vector"
vector 200 Scenario.node[6].wlan[0].radio radioMode:vector ETV
attr interpolationmode sample-hold
attr source radioModeChanged
attr title "Radio mode, vector"
vector 201 Scenario.node[6].wlan[0].radio radioChannel:vector ETV
attr interpolationmode sample-hold
attr source radioChannelChanged
attr title "Radio channel, vector"
vector 202 Scenario.node[6].wlan[0].radio receptionState:vector ETV
attr interpolationmode sample-hold
attr source receptionStateChanged
attr title "Radio reception state, vector"
vector 203 Scenario.node[6].wlan[0].mac.dcf.recoveryProcedure contentionWindowChanged:vector ETV
attr interpolationmode sample-hold
attr title "contention window, vector"
vector 204 Scenario.node[2].cache requestsAnswered:vector ETV
attr interpolationmode none
attr source answer
attr title "requests answered, vector"
vector 205 Scenario.node[7].wlan[0].radio radioMode:vector ETV
attr interpolationmode sample-hold
attr source radioModeChanged
attr title "Radio mode, vector"
vector 206 Scenario.node[7].wlan[0].radio radioChannel:vector ETV
attr interpolationmode sample-hold
attr source radioChannelChanged
attr title "Radio channel, vector"
vector 207 Scenario.node[7].wlan[0].radio receptionState:vector ETV
attr interpolationmode sample-hold
attr source receptionStateChanged
attr title "Radio reception state, vector"
vector 208 Scenario.node[7].wlan[0].mac.dcf.recoveryProcedure contentionWindowChanged:vector ETV
attr interpolationmode sample-hold
attr title "contention window, vector"
vector 209 Scenario.node[6].cache requestsReceived:vector ETV
attr interpolationmode none
attr source receive
attr title "requests received, vector"
vector 210 Scenario.node[6].cache hitRate:vector ETV
attr interpolationmode none
attr source hitRate
attr title "hit rate, vector"
vector 211 Scenario.node[6].dataServer requestsReceived:vector ETV
attr interpolationmode none
attr source receive
attr title "requests received, vector"
vector 212 Scenario.node[6].app[0] packetReceived:vector(packetBytes) ETV
attr interpolationmode none
attr source packetReceived
attr title "packets received, vector(packetBytes)"
vector 213 Scenario.node[6].app[0] throughput:vector ETV
attr source throughput(packetReceived)
attr title "throughput, vector"
attr unit bps
vector 214 Scenario.node[6].app[0] packetSent:vector(packetBytes) ETV
attr interpolationmode none
attr source packetSent
attr title "packets sent, vector(packetBytes)"
vector 215 Scenario.node[6].udp packetSent:vector(packetBytes) ETV
attr interpolationmode none
attr source packetSent
attr title "packets sent, vector(packetBytes)"
vector 216 Scenario.node[6].lo[0].lo rcvdPkFromHl:vector(packetBytes) ETV
attr interpolationmode none
attr source packetReceivedFromUpper
attr title "packets received from higher layer, vector(packetBytes)"
vector 217 Scenario.node[6].lo[0].lo passedUpPk:vector(packetBytes) ETV
attr interpolationmode none
attr source packetSentToUpper
attr title "packets passed to higher layer, vector(packetBytes)"
vector 218 Scenario.node[6].wlan[0].mac packetReceivedFromUpper:vector(packetBytes) ETV
attr interpolationmode none
attr title "packets received from upper layer, vector(packetBytes)"
vector 219 Scenario.node[6].wlan[0].mac.dcf.channelAccess.pendingQueue packetPushed:vector(packetBytes) ETV
attr interpolationmode none
attr title "packet pushed, vector(packetBytes)"
vector 220 Scenario.node[6].wlan[0].mac.dcf.channelAccess.pendingQueue queueLength:vector ETV
attr interpolationmode sample-hold
attr source "count(packetPushed) - count(packetPopped) - count(packetRemoved) - count(packetDropped)"
attr title "queue length, vector"
vector 221 Scenario.node[6].wlan[0].mac.dcf.channelAccess.contention backoffPeriodGenerated:vector ETV
attr interpolationmode none
attr title "backoff periods, vector"
vector 222 Scenario.node[6].wlan[0].mac.dcf.channelAccess.contention backoffActive:vector ETV
attr interpolationmode sample-hold
attr source count(backoffStarted)-count(backoffStopped)
attr title "backoff active, vector"
vector 223 Scenario.node[6].udp packetReceived:vector(packetBytes) ETV
attr interpolationmode none
attr source packetReceived
attr title "packets received, vector(packetBytes)"
vector 224 Scenario.node[6].udp passedUpPk:vector(count) ETV
attr interpolationmode none
attr source packetSentToUpper
attr title "packets passed up, vector(count)"
vector 225 Scenario.node[6].wlan[0].mac.dcf.channelAccess.pendingQueue packetPopped:vector(packetBytes) ETV
attr interpolationmode none
attr title "packet popped, vector(packetBytes)"
vector 226 Scenario.node[6].wlan[0].mac.dcf.channelAccess.pendingQueue queueingTime:vector ETV
attr interpolationmode none
attr source queueingTime(packetPopped)
attr title "queueing times, vector"
attr unit s
vector 227 Scenario.node[6].wlan[0].mac.dcf.channelAccess.inProgressFrames queueLength:vector ETV
attr interpolationmode sample-hold
attr source "count(packetEnqueued) - count(packetDequeued)"
attr title "queue length, vector"
vector 228 Scenario.node[6].wlan[0].mac.dcf datarateSelected:vector ETV
attr interpolationmode none
attr title "datarates selected, vector"
vector 229 Scenario.node[6].wlan[0].mac packetSentToLower:vector(packetBytes) ETV
attr interpolationmode none
attr title "packets sent to lower layer, vector(packetBytes)"
vector 230 Scenario.node[6].wlan[0].mac.dcf frameSequenceActive:vector ETV
attr interpolationmode sample-hold
attr source count(frameSequenceStarted)-count(frameSequenceFinished)
attr title "frame sequence active, vector"
vector 231 Scenario.node[6].wlan[0].radio transmissionState:vector ETV
attr interpolationmode sample-hold
attr source transmissionStateChanged
attr title "Radio transmission state, vector"
vector 232 Scenario.node[6].wlan[0].mac.dcf packetSentToPeer:vector(packetBytes) ETV
attr interpolationmode none
attr title "packets sent, vector(packetBytes)"
vector 233 Scenario.node[6].wlan[0].mac.dcf packetSentToPeerMulticast:vector(packetBytes) ETV
attr interpolationmode none
attr source ieee80211Multicast(packetSentToPeer)
attr title "packets sent: multicast, vector(packetBytes)"
vector 234 Scenario.node[6].wlan[0].mac.dcf packetSentToPeerWithoutRetry:vector(packetBytes) ETV
attr interpolationmode none
attr source ieee80211NotRetry(packetSentToPeer)
attr title "packets sent: without retry, vector(packetBytes)"
vector 235 Scenario.node[6].wlan[0].mac.dcf.channelAccess.inProgressFrames queueingTime:vector ETV
attr interpolationmode none
attr source queueingTime(packetDequeued)
attr title "queueing times, vector"
vector 236 Scenario.node[4].cache requestsAnswered:vector ETV
attr interpolationmode none
attr source answer
attr title "requests answered, vector"
vector 237 Scenario.node[8].wlan[0].radio radioMode:vector ETV
attr interpolationmode sample-hold
attr source radioModeChanged
attr title "Radio mode, vector"
vector 238 Scenario.node[8].wlan[0].radio radioChannel:vector ETV
attr interpolationmode sample-hold
attr source radioChannelChanged
attr title "Radio channel, vector"
vector 239 Scenario.node[8].wlan[0].radio receptionState:vector ETV
attr interpolationmode sample-hold
attr source receptionStateChanged
attr title "Radio reception state, vector"
vector 240 Scenario.node[8].wlan[0].mac.dcf.recoveryProcedure contentionWindowChanged:vector ETV
attr interpolationmode sample-hold
attr title "contention window, vector"
vector 241 Scenario.node[7].cache requestsReceived:vector ETV
attr interpolationmode none
attr source receive
attr title "requests received, vector"
vector 242 Scenario.node[7].cache hitRate:vector ETV
attr interpolationmode none
attr source hitRate
attr title "hit rate, vector"
vector 243 Scenario.node[7].dataServer requestsReceived:vector ETV
attr interpolationmode none
attr source receive
attr title "requests received, vector"
vector 244 Scenario.node[7].app[0] packetReceived:vector(packetBytes) ETV
attr interpolationmode none
attr source packetReceived
attr title "packets received, vector(packetBytes)"
vector 245 Scenario.node[7].app[0] throughput:vector ETV
attr source throughput(packetReceived)
attr title "throughput, vector"
attr unit bps
vector 246 Scenario.node[7].app[0] RequestReceiveTime:vector ETV
attr interpolationmode none
attr source receiveTime
attr title "request time, vector"
vector 247 Scenario.node[6].app[0] RequestReceiveTime:vector ETV
attr interpolationmode none
attr source receiveTime
attr title "request time, vector"
vector 248 Scenario.node[9].wlan[0].radio radioMode:vector ETV
attr interpolationmode sample-hold
attr source radioModeChanged
attr title "Radio mode, vector"
vector 249 Scenario.node[9].wlan[0].radio radioChannel:vector ETV
attr interpolationmode sample-hold
attr source radioChannelChanged
attr title "Radio channel, vector"
vector 250 Scenario.node[9].wlan[0].radio receptionState:vector ETV
attr interpolationmode sample-hold
attr source receptionStateChanged
attr title "Radio reception state, vector"
vector 251 Scenario.node[9].wlan[0].mac.dcf.recoveryProcedure contentionWindowChanged:vector ETV
attr interpolationmode sample-hold
attr title "contention window, vector"
vector 252 Scenario.node[8].cache requestsReceived:vector ETV
attr interpolationmode none
attr source receive
attr title "requests received, vector"
vector 253 Scenario.node[8].cache hitRate:vector ETV
attr interpolationmode none
attr source hitRate
attr title "hit rate, vector"
vector 254 Scenario.node[8].dataServer requestsReceived:vector ETV
attr interpolationmode none
attr source receive
attr title "requests received, vector"
vector 255 Scenario.node[8].app[0] packetReceived:vector(packetBytes) ETV
attr interpolationmode none
attr source packetReceived
attr title "packets received, vector(packetBytes)"
vector 256 Scenario.node[8].app[0] throughput:vector ETV
attr source throughput(packetReceived)
attr title "throughput, vector"
attr unit bps
vector 257 Scenario.node[8].app[0] packetSent:vector(packetBytes) ETV
attr interpolationmode none
attr source packetSent
attr title "packets sent, vector(packetBytes)"
vector 258 Scenario.node[8].udp packetSent:vector(packetBytes) ETV
attr interpolationmode none
attr source packetSent
attr title "packets sent, vector(packetBytes)"
vector 259 Scenario.node[8].lo[0].lo rcvdPkFromHl:vector(packetBytes) ETV
attr interpolationmode none
attr source packetReceivedFromUpper
attr title "packets received from higher layer, vector(packetBytes)"
vector 260 Scenario.node[8].lo[0].lo passedUpPk:vector(packetBytes) ETV
attr interpolationmode none
attr source packetSentToUpper
attr title "packets passed to higher layer, vector(packetBytes)"
vector 261 Scenario.node[8].wlan[0].mac packetReceivedFromUpper:vector(packetBytes) ETV
attr interpolationmode none
attr title "packets received from upper layer, vector(packetBytes)"
vector 262 Scenario.node[8].wlan[0].mac.dcf.channelAccess.pendingQueue packetPushed:vector(packetBytes) ETV
attr interpolationmode none
attr title "packet pushed, vector(packetBytes)"
vector 263 Scenario.node[8].wlan[0].mac.dcf.channelAccess.pendingQueue queueLength:vector ETV
attr interpolationmode sample-hold
attr source "count(packetPushed) - count(packetPopped) - count(packetRemoved) - count(packetDropped)"
attr title "queue length, vector"
vector 264 Scenario.node[8].wlan[0].mac.dcf.channelAccess.contention backoffPeriodGenerated:vector ETV
attr interpolationmode none
attr title "backoff periods, vector"
vector 265 Scenario.node[8].wlan[0].mac.dcf.channelAccess.contention backoffActive:vector ETV
attr interpolationmode sample-hold
attr source count(backoffStarted)-count(backoffStopped)
attr title "backoff active, vector"
vector 266 Scenario.node[8].udp packetReceived:vector(packetBytes) ETV
attr interpolationmode none
attr source packetReceived
attr title "packets received, vector(packetBytes)"
vector 267 Scenario.node[8].udp passedUpPk:vector(count) ETV
attr interpolationmode none
attr source packetSentToUpper
attr title "packets passed up, vector(count)"
vector 268 Scenario.node[8].wlan[0].mac.dcf.channelAccess.pendingQueue packetPopped:vector(packetBytes) ETV
attr interpolationmode none
attr title "packet popped, vector(packetBytes)"
vector 269 Scenario.node[8].wlan[0].mac.dcf.channelAccess.pendingQueue queueingTime:vector ETV
attr interpolationmode none
attr source queueingTime(packetPopped)
attr title "queueing times, vector"
attr unit s
vector 270 Scenario.node[8].wlan[0].mac.dcf.channelAccess.inProgressFrames queueLength:vector ETV
attr interpolationmode sample-hold
attr source "count(packetEnqueued) - count(packetDequeued)"
attr title "queue length, vector"
vector 271 Scenario.node[8].wlan[0].mac.dcf datarateSelected:vector ETV
attr interpolationmode none
attr title "datarates selected, vector"
vector 272 Scenario.node[8].wlan[0].mac packetSentToLower:vector(packetBytes) ETV
attr interpolationmode none
attr title "packets sent to lower layer, vector(packetBytes)"
vector 273 Scenario.node[8].wlan[0].mac.dcf frameSequenceActive:vector ETV
attr interpolationmode sample-hold
attr source count(frameSequenceStarted)-count(frameSequenceFinished)
attr title "frame sequence active, vector"
vector 274 Scenario.node[8].wlan[0].radio transmissionState:vector ETV
attr interpolationmode sample-hold
attr source transmissionStateChanged
attr title "Radio transmission state, vector"
vector 275 Scenario.node[8].wlan[0].mac.dcf packetSentToPeer:vector(packetBytes) ETV
attr interpolationmode none
attr title "packets sent, vector(packetBytes)"
vector 276 Scenario.node[8].wlan[0].mac.dcf packetSentToPeerMulticast:vector(packetBytes) ETV
attr interpolationmode none
attr source ieee80211Multicast(packetSentToPeer)
attr title "packets sent: multicast, vector(packetBytes)"
vector 277 Scenario.node[8].wlan[0].mac.dcf packetSentToPeerWithoutRetry:vector(packetBytes) ETV
attr interpolationmode none
attr source ieee80211NotRetry(packetSentToPeer)
attr title "packets sent: without retry, vector(packetBytes)"
vector 278 Scenario.node[8].wlan[0].mac.dcf.channelAccess.inProgressFrames queueingTime:vector ETV
attr interpolationmode none
attr source queueingTime(packetDequeued)
attr title "queueing times, vector"
vector 279 Scenario.node[7].app[0] packetSent:vector(packetBytes) ETV
attr interpolationmode none
attr source packetSent
attr title "packets sent, vector(packetBytes)"
vector 280 Scenario.node[7].udp packetSent:vector(packetBytes) ETV
attr interpolationmode none
attr source packetSent
attr title "packets sent, vector(packetBytes)"
vector 281 Scenario.node[7].lo[0].lo rcvdPkFromHl:vector(packetBytes) ETV
attr interpolationmode none
attr source packetReceivedFromUpper
attr title "packets received from higher layer, vector(packetBytes)"
vector 282 Scenario.node[7].lo[0].lo passedUpPk:vector(packetBytes) ETV
attr interpolationmode none
attr source packetSentToUpper
attr title "packets passed to higher layer, vector(packetBytes)"
vector 283 Scenario.node[7].wlan[0].mac packetReceivedFromUpper:vector(packetBytes) ETV
attr interpolationmode none
attr title "packets received from upper layer, vector(packetBytes)"
vector 284 Scenario.node[7].wlan[0].mac.dcf.channelAccess.pendingQueue packetPushed:vector(packetBytes) ETV
attr interpolationmode none
attr title "packet pushed, vector(packetBytes)"
vector 285 Scenario.node[7].wlan[0].mac.dcf.channelAccess.pendingQueue queueLength:vector ETV
attr interpolationmode sample-hold
attr source "count(packetPushed) - count(packetPopped) - count(packetRemoved) - count(packetDropped)"
attr title "queue length, vector"
vector 286 Scenario.node[7].wlan[0].mac.dcf.channelAccess.contention backoffPeriodGenerated:vector ETV
attr interpolationmode none
attr title "backoff periods, vector"
vector 287 Scenario.node[7].wlan[0].mac.dcf.channelAccess.contention backoffActive:vector ETV
attr interpolationmode sample-hold
attr source count(backoffStarted)-count(backoffStopped)
attr title "backoff active, vector"
vector 288 Scenario.node[7].udp packetReceived:vector(packetBytes) ETV
attr interpolationmode none
attr source packetReceived
attr title "packets received, vector(packetBytes)"
vector 289 Scenario.node[7].udp passedUpPk:vector(count) ETV
attr interpolationmode none
attr source packetSentToUpper
attr title "packets passed up, vector(count)"
vector 290 Scenario.node[7].wlan[0].mac.dcf.channelAccess.pendingQueue packetPopped:vector(packetBytes) ETV
attr interpolationmode none
attr title "packet popped, vector(packetBytes)"
vector 291 Scenario.node[7].wlan[0].mac.dcf.channelAccess.pendingQueue queueingTime:vector ETV
attr interpolationmode none
attr source queueingTime(packetPopped)
attr title "queueing times, vector"
attr unit s
vector 292 Scenario.node[7].wlan[0].mac.dcf.channelAccess.inProgressFrames queueLength:vector ETV
attr interpolationmode sample-hold
attr source "count(packetEnqueued) - count(packetDequeued)"
attr title "queue length, vector"
vector 293 Scenario.node[7].wlan[0].mac.dcf datarateSelected:vector ETV
attr interpolationmode none
attr title "datarates selected, vector"
vector 294 Scenario.node[7].wlan[0].mac packetSentToLower:vector(packetBytes) ETV
attr interpolationmode none
attr title "packets sent to lower layer, vector(packetBytes)"
vector 295 Scenario.node[7].wlan[0].mac.dcf frameSequenceActive:vector ETV
attr interpolationmode sample-hold
attr source count(frameSequenceStarted)-count(frameSequenceFinished)
attr title "frame sequence active, vector"
vector 296 Scenario.node[7].wlan[0].radio transmissionState:vector ETV
attr interpolationmode sample-hold
attr source transmissionStateChanged
attr title "Radio transmission state, vector"
vector 297 Scenario.node[7].wlan[0].mac.dcf packetSentToPeer:vector(packetBytes) ETV
attr interpolationmode none
attr title "packets sent, vector(packetBytes)"
vector 298 Scenario.node[7].wlan[0].mac.dcf packetSentToPeerMulticast:vector(packetBytes) ETV
attr interpolationmode none
attr source ieee80211Multicast(packetSentToPeer)
attr title "packets sent: multicast, vector(packetBytes)"
vector 299 Scenario.node[7].wlan[0].mac.dcf packetSentToPeerWithoutRetry:vector(packetBytes) ETV
attr interpolationmode none
attr source ieee80211NotRetry(packetSentToPeer)
attr title "packets sent: without retry, vector(packetBytes)"
vector 300 Scenario.node[7].wlan[0].mac.dcf.channelAccess.inProgressFrames queueingTime:vector ETV
attr interpolationmode none
attr source queueingTime(packetDequeued)
attr title "queueing times, vector"
vector 301 Scenario.node[10].wlan[0].radio radioMode:vector ETV
attr interpolationmode sample-hold
attr source radioModeChanged
attr title "Radio mode, vector"
vector 302 Scenario.node[10].wlan[0].radio radioChannel:vector ETV
attr interpolationmode sample-hold
attr source radioChannelChanged
attr title "Radio channel, vector"
vector 303 Scenario.node[10].wlan[0].radio receptionState:vector ETV
attr interpolationmode sample-hold
attr source receptionStateChanged
attr title "Radio reception state, vector"
vector 304 Scenario.node[10].wlan[0].mac.dcf.recoveryProcedure contentionWindowChanged:vector ETV
attr interpolationmode sample-hold
attr title "contention window, vector"
vector 305 Scenario.node[5].cache requestsAnswered:vector ETV
attr interpolationmode none
attr source answer
attr title "requests answered, vector"
vector 306 Scenario.node[9].cache requestsReceived:vector ETV
attr interpolationmode none
attr source receive
attr title "requests received, vector"
vector 307 Scenario.node[9].cache hitRate:vector ETV
attr interpolationmode none
attr source hitRate
attr title "hit rate, vector"
vector 308 Scenario.node[9].dataServer requestsReceived:vector ETV
attr interpolationmode none
attr source receive
attr title "requests received, vector"
vector 309 Scenario.node[9].app[0] packetReceived:vector(packetBytes) ETV
attr interpolationmode none
attr source packetReceived
attr title "packets received, vector(packetBytes)"
vector 310 Scenario.node[9].app[0] throughput:vector ETV
attr source throughput(packetReceived)
attr title "throughput, vector"
attr unit bps
vector 311 Scenario.node[9].app[0] packetSent:vector(packetBytes) ETV
attr interpolationmode none
attr source packetSent
attr title "packets sent, vector(packetBytes)"
vector 312 Scenario.node[9].udp packetSent:vector(packetBytes) ETV
attr interpolationmode none
attr source packetSent
attr title "packets sent, vector(packetBytes)"
vector 313 Scenario.node[9].lo[0].lo rcvdPkFromHl:vector(packetBytes) ETV
attr interpolationmode none
attr source packetReceivedFromUpper
attr title "packets received from higher layer, vector(packetBytes)"
vector 314 Scenario.node[9].lo[0].lo passedUpPk:vector(packetBytes) ETV
attr interpolationmode none
attr source packetSentToUpper
attr title "packets passed to higher layer, vector(packetBytes)"
vector 315 Scenario.node[9].wlan[0].mac packetReceivedFromUpper:vector(packetBytes) ETV
attr interpolationmode none
attr title "packets received from upper layer, vector(packetBytes)"
vector 316 Scenario.node[9].wlan[0].mac.dcf.channelAccess.pendingQueue packetPushed:vector(packetBytes) ETV
attr interpolationmode none
attr title "packet pushed, vector(packetBytes)"
vector 317 Scenario.node[9].wlan[0].mac.dcf.channelAccess.pendingQueue queueLength:vector ETV
attr interpolationmode sample-hold
attr source "count(packetPushed) - count(packetPopped) - count(packetRemoved) - count(packetDropped)"
attr title "queue length, vector"
vector 318 Scenario.node[9].wlan[0].mac.dcf.channelAccess.contention backoffPeriodGenerated:vector ETV
attr interpolationmode none
attr title "backoff periods, vector"
vector 319 Scenario.node[9].wlan[0].mac.dcf.channelAccess.contention backoffActive:vector ETV
attr interpolationmode sample-hold
attr source count(backoffStarted)-count(backoffStopped)
attr title "backoff active, vector"
vector 320 Scenario.node[9].udp packetReceived:vector(packetBytes) ETV
attr interpolationmode none
attr source packetReceived
attr title "packets received, vector(packetBytes)"
vector 321 Scenario.node[9].udp passedUpPk:vector(count) ETV
attr interpolationmode none
attr source packetSentToUpper
attr title "packets passed up, vector(count)"
vector 322 Scenario.node[9].wlan[0].mac.dcf.channelAccess.pendingQueue packetPopped:vector(packetBytes) ETV
attr interpolationmode none
attr title "packet popped, vector(packetBytes)"
vector 323 Scenario.node[9].wlan[0].mac.dcf.channelAccess.pendingQueue queueingTime:vector ETV
attr interpolationmode none
attr source queueingTime(packetPopped)
attr title "queueing times, vector"
attr unit s
vector 324 Scenario.node[9].wlan[0].mac.dcf.channelAccess.inProgressFrames queueLength:vector ETV
attr interpolationmode sample-hold
attr source "count(packetEnqueued) - count(packetDequeued)"
attr title "queue length, vector"
vector 325 Scenario.node[9].wlan[0].mac.dcf datarateSelected:vector ETV
attr interpolationmode none
attr title "datarates selected, vector"
vector 326 Scenario.node[9].wlan[0].mac packetSentToLower:vector(packetBytes) ETV
attr interpolationmode none
attr title "packets sent to lower layer, vector(packetBytes)"
vector 327 Scenario.node[9].wlan[0].mac.dcf frameSequenceActive:vector ETV
attr interpolationmode sample-hold
attr source count(frameSequenceStarted)-count(frameSequenceFinished)
attr title "frame sequence active, vector"
vector 328 Scenario.node[9].wlan[0].radio transmissionState:vector ETV
attr interpolationmode sample-hold
attr source transmissionStateChanged
attr title "Radio transmission state, vector"
vector 329 Scenario.node[9].wlan[0].mac.dcf packetSentToPeer:vector(packetBytes) ETV
attr interpolationmode none
attr title "packets sent, vector(packetBytes)"
vector 330 Scenario.node[9].wlan[0].mac.dcf packetSentToPeerMulticast:vector(packetBytes) ETV
attr interpolationmode none
attr source ieee80211Multicast(packetSentToPeer)
attr title "packets sent: multicast, vector(packetBytes)"
vector 331 Scenario.node[9].wlan[0].mac.dcf packetSentToPeerWithoutRetry:vector(packetBytes) ETV
attr interpolationmode none
attr source ieee80211NotRetry(packetSentToPeer)
attr title "packets sent: without retry, vector(packetBytes)"
vector 332 Scenario.node[9].wlan[0].mac.dcf.channelAccess.inProgressFrames queueingTime:vector ETV
attr interpolationmode none
attr source queueingTime(packetDequeued)
attr title "queueing times, vector"
vector 333 Scenario.node[9].wlan[0].mac packetReceivedFromLower:vector(packetBytes) ETV
attr interpolationmode none
attr title "packets received from lower layer, vector(packetBytes)"
vector 334 Scenario.node[9].wlan[0].mac.dcf packetReceivedFromPeer:vector(packetBytes) ETV
attr interpolationmode none
attr title "packets received, vector(packetBytes)"
vector 335 Scenario.node[9].wlan[0].mac.dcf packetReceivedFromPeerMulticast:vector(packetBytes) ETV
attr interpolationmode none
attr source ieee80211Multicast(packetReceivedFromPeer)
attr title "packets received: multicast, vector(packetBytes)"
vector 336 Scenario.node[9].wlan[0].mac.dcf packetReceivedFromPeerWithoutRetry:vector(packetBytes) ETV
attr interpolationmode none
attr source ieee80211NotRetry(packetReceivedFromPeer)
attr title "packets received: without retry, vector(packetBytes)"
vector 337 Scenario.node[9].wlan[0].mac packetSentToUpper:vector(packetBytes) ETV
attr interpolationmode none
attr title "packets sent to upper layer, vector(packetBytes)"
vector 338 Scenario.node[9].app[0] RequestReceiveTime:vector ETV
attr interpolationmode none
attr source receiveTime
attr title "request time, vector"
vector 339 Scenario.node[10].wlan[0].mac packetReceivedFromLower:vector(packetBytes) ETV
attr interpolationmode none
attr title "packets received from lower layer, vector(packetBytes)"
vector 340 Scenario.node[10].wlan[0].mac.dcf packetReceivedFromPeer:vector(packetBytes) ETV
attr interpolationmode none
attr title "packets received, vector(packetBytes)"
vector 341 Scenario.node[10].wlan[0].mac.dcf packetReceivedFromPeerMulticast:vector(packetBytes) ETV
attr interpolationmode none
attr source ieee80211Multicast(packetReceivedFromPeer)
attr title "packets received: multicast, vector(packetBytes)"
vector 342 Scenario.node[10].wlan[0].mac.dcf packetReceivedFromPeerWithoutRetry:vector(packetBytes) ETV
attr interpolationmode none
attr source ieee80211NotRetry(packetReceivedFromPeer)
attr title "packets received: without retry, vector(packetBytes)"
vector 343 Scenario.node[10].wlan[0].mac packetSentToUpper:vector(packetBytes) ETV
attr interpolationmode none
attr title "packets sent to upper layer, vector(packetBytes)"
vector 344 Scenario.node[10].udp packetReceived:vector(packetBytes) ETV
attr interpolationmode none
attr source packetReceived
attr title "packets received, vector(packetBytes)"
vector 345 Scenario.node[10].udp passedUpPk:vector(count) ETV
attr interpolationmode none
attr source packetSentToUpper
attr title "packets passed up, vector(count)"
vector 346 Scenario.node[10].app[0] packetReceived:vector(packetBytes) ETV
attr interpolationmode none
attr source packetReceived
attr title "packets received, vector(packetBytes)"
vector 347 Scenario.node[10].app[0] throughput:vector ETV
attr source throughput(packetReceived)
attr title "throughput, vector"
attr unit bps
vector 348 Scenario.node[11].wlan[0].radio radioMode:vector ETV
attr interpolationmode sample-hold
attr source radioModeChanged
attr title "Radio mode, vector"
vector 349 Scenario.node[11].wlan[0].radio radioChannel:vector ETV
attr interpolationmode sample-hold
attr source radioChannelChanged
attr title "Radio channel, vector"
vector 350 Scenario.node[11].wlan[0].radio receptionState:vector ETV
attr interpolationmode sample-hold
attr source receptionStateChanged
attr title "Radio reception state, vector"
vector 351 Scenario.node[11].wlan[0].mac.dcf.recoveryProcedure contentionWindowChanged:vector ETV
attr interpolationmode sample-hold
attr title "contention window, vector"
vector 352 Scenario.node[10].cache requestsReceived:vector ETV
attr interpolationmode none
attr source receive
attr title "requests received, vector"
vector 353 Scenario.node[10].cache hitRate:vector ETV
attr interpolationmode none
attr source hitRate
attr title "hit rate, vector"
vector 354 Scenario.node[10].dataServer requestsReceived:vector ETV
attr interpolationmode none
attr source receive
attr title "requests received, vector"
vector 355 Scenario.node[10].app[0] packetSent:vector(packetBytes) ETV
attr interpolationmode none
attr source packetSent
attr title "packets sent, vector(packetBytes)"
vector 356 Scenario.node[10].udp packetSent:vector(packetBytes) ETV
attr interpolationmode none
attr source packetSent
attr title "packets sent, vector(packetBytes)"
vector 357 Scenario.node[10].lo[0].lo rcvdPkFromHl:vector(packetBytes) ETV
attr interpolationmode none
attr source packetReceivedFromUpper
attr title "packets received from higher layer, vector(packetBytes)"
vector 358 Scenario.node[10].lo[0].lo passedUpPk:vector(packetBytes) ETV
attr interpolationmode none
attr source packetSentToUpper
attr title "packets passed to higher layer, vector(packetBytes)"
vector 359 Scenario.node[10].wlan[0].mac packetReceivedFromUpper:vector(packetBytes) ETV
attr interpolationmode none
attr title "packets received from upper layer, vector(packetBytes)"
vector 360 Scenario.node[10].wlan[0].mac.dcf.channelAccess.pendingQueue packetPushed:vector(packetBytes) ETV
attr interpolationmode none
attr title "packet pushed, vector(packetBytes)"
vector 361 Scenario.node[10].wlan[0].mac.dcf.channelAccess.pendingQueue queueLength:vector ETV
attr interpolationmode sample-hold
attr source "count(packetPushed) - count(packetPopped) - count(packetRemoved) - count(packetDropped)"
attr title "queue length, vector"
vector 362 Scenario.node[10].wlan[0].mac.dcf.channelAccess.contention backoffPeriodGenerated:vector ETV
attr interpolationmode none
attr title "backoff periods, vector"
vector 363 Scenario.node[10].wlan[0].mac.dcf.channelAccess.contention backoffActive:vector ETV
attr interpolationmode sample-hold
attr source count(backoffStarted)-count(backoffStopped)
attr title "backoff active, vector"
vector 364 Scenario.node[10].wlan[0].mac.dcf.channelAccess.pendingQueue packetPopped:vector(packetBytes) ETV
attr interpolationmode none
attr title "packet popped, vector(packetBytes)"
vector 365 Scenario.node[10].wlan[0].mac.dcf.channelAccess.pendingQueue queueingTime:vector ETV
attr interpolationmode none
attr source queueingTime(packetPopped)
attr title "queueing times, vector"
attr unit s
vector 366 Scenario.node[10].wlan[0].mac.dcf.channelAccess.inProgressFrames queueLength:vector ETV
attr interpolationmode sample-hold
attr source "count(packetEnqueued) - count(packetDequeued)"
attr title "queue length, vector"
vector 367 Scenario.node[10].wlan[0].mac.dcf datarateSelected:vector ETV
attr interpolationmode none
attr title "datarates selected, vector"
vector 368 Scenario.node[10].wlan[0].mac packetSentToLower:vector(packetBytes) ETV
attr interpolationmode none
attr title "packets sent to lower layer, vector(packetBytes)"
vector 369 Scenario.node[10].wlan[0].mac.dcf frameSequenceActive:vector ETV
attr interpolationmode sample-hold
attr source count(frameSequenceStarted)-count(frameSequenceFinished)
attr title "frame sequence active, vector"
vector 370 Scenario.node[10].wlan[0].radio transmissionState:vector ETV
attr interpolationmode sample-hold
attr source transmissionStateChanged
attr title "Radio transmission state, vector"
vector 371 Scenario.node[10].wlan[0].mac.dcf packetSentToPeer:vector(packetBytes) ETV
attr interpolationmode none
attr title "packets sent, vector(packetBytes)"
vector 372 Scenario.node[10].wlan[0].mac.dcf packetSentToPeerMulticast:vector(packetBytes) ETV
attr interpolationmode none
attr source ieee80211Multicast(packetSentToPeer)
attr title "packets sent: multicast, vector(packetBytes)"
vector 373 Scenario.node[10].wlan[0].mac.dcf packetSentToPeerWithoutRetry:vector(packetBytes) ETV
attr interpolationmode none
attr source ieee80211NotRetry(packetSentToPeer)
attr title "packets sent: without retry, vector(packetBytes)"
vector 374 Scenario.node[10].wlan[0].mac.dcf.channelAccess.inProgressFrames queueingTime:vector ETV
attr interpolationmode none
attr source queueingTime(packetDequeued)
attr title "queueing times, vector"
vector 375 Scenario.node[5].app[0] packetSent:vector(packetBytes) ETV
attr interpolationmode none
attr source packetSent
attr title "packets sent, vector(packetBytes)"
vector 376 Scenario.node[5].udp packetSent:vector(packetBytes) ETV
attr interpolationmode none
attr source packetSent
attr title "packets sent, vector(packetBytes)"
vector 377 Scenario.node[5].lo[0].lo rcvdPkFromHl:vector(packetBytes) ETV
attr interpolationmode none
attr source packetReceivedFromUpper
attr title "packets received from higher layer, vector(packetBytes)"
vector 378 Scenario.node[5].lo[0].lo passedUpPk:vector(packetBytes) ETV
attr interpolationmode none
attr source packetSentToUpper
attr title "packets passed to higher layer, vector(packetBytes)"
vector 379 Scenario.node[5].wlan[0].mac packetReceivedFromUpper:vector(packetBytes) ETV
attr interpolationmode none
attr title "packets received from upper layer, vector(packetBytes)"
vector 380 Scenario.node[5].wlan[0].mac.dcf.channelAccess.pendingQueue packetPushed:vector(packetBytes) ETV
attr interpolationmode none
attr title "packet pushed, vector(packetBytes)"
vector 381 Scenario.node[5].wlan[0].mac.dcf.channelAccess.pendingQueue queueLength:vector ETV
attr interpolationmode sample-hold
attr source "count(packetPushed) - count(packetPopped) - count(packetRemoved) - count(packetDropped)"
attr title "queue length, vector"
vector 382 Scenario.node[5].wlan[0].mac.dcf.channelAccess.contention backoffPeriodGenerated:vector ETV
attr interpolationmode none
attr title "backoff periods, vector"
vector 383 Scenario.node[5].wlan[0].mac.dcf.channelAccess.contention backoffActive:vector ETV
attr interpolationmode sample-hold
attr source count(backoffStarted)-count(backoffStopped)
attr title "backoff active, vector"
vector 384 Scenario.node[5].wlan[0].mac.dcf.channelAccess.pendingQueue packetPopped:vector(packetBytes) ETV
attr interpolationmode none
attr title "packet popped, vector(packetBytes)"
vector 385 Scenario.node[5].wlan[0].mac.dcf.channelAccess.pendingQueue queueingTime:vector ETV
attr interpolationmode none
attr source queueingTime(packetPopped)
attr title "queueing times, vector"
attr unit s
vector 386 Scenario.node[5].wlan[0].mac.dcf.channelAccess.inProgressFrames queueLength:vector ETV
attr interpolationmode sample-hold
attr source "count(packetEnqueued) - count(packetDequeued)"
attr title "queue length, vector"
vector 387 Scenario.node[5].wlan[0].mac.dcf datarateSelected:vector ETV
attr interpolationmode none
attr title "datarates selected, vector"
vector 388 Scenario.node[5].wlan[0].mac packetSentToLower:vector(packetBytes) ETV
attr interpolationmode none
attr title "packets sent to lower layer, vector(packetBytes)"
vector 389 Scenario.node[5].wlan[0].mac.dcf frameSequenceActive:vector ETV
attr interpolationmode sample-hold
attr source count(frameSequenceStarted)-count(frameSequenceFinished)
attr title "frame sequence active, vector"
vector 390 Scenario.node[5].wlan[0].radio transmissionState:vector ETV
attr interpolationmode sample-hold
attr source transmissionStateChanged
attr title "Radio transmission state, vector"
vector 391 Scenario.node[5].wlan[0].mac.dcf packetSentToPeer:vector(packetBytes) ETV
attr interpolationmode none
attr title "packets sent, vector(packetBytes)"
vector 392 Scenario.node[5].wlan[0].mac.dcf packetSentToPeerMulticast:vector(packetBytes) ETV
attr interpolationmode none
attr source ieee80211Multicast(packetSentToPeer)
attr title "packets sent: multicast, vector(packetBytes)"
vector 393 Scenario.node[5].wlan[0].mac.dcf packetSentToPeerWithoutRetry:vector(packetBytes) ETV
attr interpolationmode none
attr source ieee80211NotRetry(packetSentToPeer)
attr title "packets sent: without retry, vector(packetBytes)"
vector 394 Scenario.node[5].wlan[0].mac.dcf.channelAccess.inProgressFrames queueingTime:vector ETV
attr interpolationmode none
attr source queueingTime(packetDequeued)
attr title "queueing times, vector"
vector 395 Scenario.node[10].app[0] RequestReceiveTime:vector ETV
attr interpolationmode none
attr source receiveTime
attr title "request time, vector"
vector 396 Scenario.node[12].wlan[0].radio radioMode:vector ETV
attr interpolationmode sample-hold
attr source radioModeChanged
attr title "Radio mode, vector"
vector 397 Scenario.node[12].wlan[0].radio radioChannel:vector ETV
attr interpolationmode sample-hold
attr source radioChannelChanged
attr title "Radio channel, vector"
vector 398 Scenario.node[12].wlan[0].radio receptionState:vector ETV
attr interpolationmode sample-hold
attr source receptionStateChanged
attr title "Radio reception state, vector"
vector 399 Scenario.node[12].wlan[0].mac.dcf.recoveryProcedure contentionWindowChanged:vector ETV
attr interpolationmode sample-hold
attr title "contention window, vector"
vector 400 Scenario.node[6].cache requestsAnswered:vector ETV
attr interpolationmode none
attr source answer
attr title "requests answered, vector"
vector 401 Scenario.node[11].cache requestsReceived:vector ETV
attr interpolationmode none
attr source receive
attr title "requests received, vector"
vector 402 Scenario.node[11].cache hitRate:vector ETV
attr interpolationmode none
attr source hitRate
attr title "hit rate, vector"
vector 403 Scenario.node[11].dataServer requestsReceived:vector ETV
attr interpolationmode none
attr source receive
attr title "requests received, vector"
vector 404 Scenario.node[11].app[0] packetReceived:vector(packetBytes) ETV
attr interpolationmode none
attr source packetReceived
attr title "packets received, vector(packetBytes)"
vector 405 Scenario.node[11].app[0] throughput:vector ETV
attr source throughput(packetReceived)
attr title "throughput, vector"
attr unit bps
vector 406 Scenario.node[11].app[0] packetSent:vector(packetBytes) ETV
attr interpolationmode none
attr source packetSent
attr title "packets sent, vector(packetBytes)"
vector 407 Scenario.node[11].udp packetSent:vector(packetBytes) ETV
attr interpolationmode none
attr source packetSent
attr title "packets sent, vector(packetBytes)"
vector 408 Scenario.node[11].lo[0].lo rcvdPkFromHl:vector(packetBytes) ETV
attr interpolationmode none
attr source packetReceivedFromUpper
attr title "packets received from higher layer, vector(packetBytes)"
vector 409 Scenario.node[11].lo[0].lo passedUpPk:vector(packetBytes) ETV
attr interpolationmode none
attr source packetSentToUpper
attr title "packets passed to higher layer, vector(packetBytes)"
vector 410 Scenario.node[11].wlan[0].mac packetReceivedFromUpper:vector(packetBytes) ETV
attr interpolationmode none
attr title "packets received from upper layer, vector(packetBytes)"
vector 411 Scenario.node[11].wlan[0].mac.dcf.channelAccess.pendingQueue packetPushed:vector(packetBytes) ETV
attr interpolationmode none
attr title "packet pushed, vector(packetBytes)"
vector 412 Scenario.node[11].wlan[0].mac.dcf.channelAccess.pendingQueue queueLength:vector ETV
attr interpolationmode sample-hold
attr source "count(packetPushed) - count(packetPopped) - count(packetRemoved) - count(packetDropped)"
attr title "queue length, vector"
vector 413 Scenario.node[11].wlan[0].mac.dcf.channelAccess.contention backoffPeriodGenerated:vector ETV
attr interpolationmode none
attr title "backoff periods, vector"
vector 414 Scenario.node[11].wlan[0].mac.dcf.channelAccess.contention backoffActive:vector ETV
attr interpolationmode sample-hold
attr source count(backoffStarted)-count(backoffStopped)
attr title "backoff active, vector"
vector 415 Scenario.node[11].udp packetReceived:vector(packetBytes) ETV
attr interpolationmode none
attr source packetReceived
attr title "packets received, vector(packetBytes)"
vector 416 Scenario.node[11].udp passedUpPk:vector(count) ETV
attr interpolationmode none
attr source packetSentToUpper
attr title "packets passed up, vector(count)"
vector 417 Scenario.node[11].wlan[0].mac.dcf.channelAccess.pendingQueue packetPopped:vector(packetBytes) ETV
attr interpolationmode none
attr title "packet popped, vector(packetBytes)"
vector 418 Scenario.node[11].wlan[0].mac.dcf.channelAccess.pendingQueue queueingTime:vector ETV
attr interpolationmode none
attr source queueingTime(packetPopped)
attr title "queueing times, vector"
attr unit s
vector 419 Scenario.node[11].wlan[0].mac.dcf.channelAccess.inProgressFrames queueLength:vector ETV
attr interpolationmode sample-hold
attr source "count(packetEnqueued) - count(packetDequeued)"
attr title "queue length, vector"
vector 420 Scenario.node[11].wlan[0].mac.dcf datarateSelected:vector ETV
attr interpolationmode none
attr title "datarates selected, vector"
vector 421 Scenario.node[11].wlan[0].mac packetSentToLower:vector(packetBytes) ETV
attr interpolationmode none
attr title "packets sent to lower layer, vector(packetBytes)"
vector 422 Scenario.node[11].wlan[0].mac.dcf frameSequenceActive:vector ETV
attr interpolationmode sample-hold
attr source count(frameSequenceStarted)-count(frameSequenceFinished)
attr title "frame sequence active, vector"
[...]
1345	2004299 221 23961 32904 158.180424767613 176.195424618318 7 570 570 3990 2274300
1336	2004520 221 23957 32900 158.180424767613 176.195424618318 7 542 542 3794 2056348
1294	2004741 1251 22763 32253 156.159455866512 176.127145177352 38 542 542 20596 11163032
1302	2005992 231 22880 32008 156.159989905308 176.125907336525 7 570 570 3990 2274300
1301	2006223 231 22880 32008 156.159989905308 176.125907336525 7 570 570 3990 2274300
1293	2006454 1251 22763 32253 156.159455866512 176.127145177352 38 570 570 21660 12346200
1292	2007705 1251 22763 32253 156.159455866512 176.127145177352 38 570 570 21660 12346200
1291	2008956 1251 22763 32253 156.159455866512 176.127145177352 38 570 570 21660 12346200
1350	2010207 224 23992 32939 158.180848767613 176.195848618318 7 570 570 3990 2274300
1349	2010431 224 23992 32939 158.180848767613 176.195848618318 7 570 570 3990 2274300
1348	2010655 224 23992 32939 158.180848767613 176.195848618318 7 570 570 3990 2274300
1346	2010879 417 23961 32939 158.180424767613 176.195848618318 14 0 1 7 7
1344	2011296 256 23961 32904 158.180424767613 176.195424618318 7 12000000 12000000 84000000 1.008e+015
1342	2011552 234 23961 32904 158.180424767613 176.195424618318 7 0 0.002221144096 0.002428144096 4.9570180951957e-006
1341	2011786 221 23961 32904 158.180424767613 176.195424618318 7 570 570 3990 2274300
1337	2012007 221 23957 32900 158.180424767613 176.195424618318 7 570 570 3990 2274300
1338	2012228 414 23957 32904 158.180424767613 176.195424618318 14 0 1 7 7
1351	2012642 259 23992 32939 158.180848767613 176.195848618318 7 0.000424 0.000424 0.002968 1.258432e-006
1343	2012901 417 23961 32939 158.180424767613 176.195848618318 14 0 1 7 7
1340	2013318 724 23957 32903 158.180424767613 176.195424618318 24 0 1 12 12
1339	2014042 208 23957 32900 158.180424767613 176.195424618318 7 0 14 31 299
1256	2014250 21 22461 22461 155.1 155.1 1 15 15 15 225
1347	2014271 834 23962 32940 158.180424767613 176.195848618318 28 0 2 28 42
1255	2015105 3376 22461 32940 155.1 176.195848618318 110 0 3 198 478
1253	2018481 477 22461 32940 155.1 176.195848618318 17 0 3 37 95
1254	2018958 20 22461 22461 155.1 155.1 1 3 3 3 9
1295	2018978 1472 22766 32901 156.159455866512 176.195424618318 45 520 520 23400 12168000
1333	2020450 221 23952 32895 158.180424767613 176.195424618318 7 520 520 3640 1892800
1296	2020671 1418 22766 32901 156.159455866512 176.195424618318 45 1 45 1035 31395
1358	2022089 143 25200 31669 160.10684949852 175.188 4 0 0.087999999999994 0.13184949852001 0.009159915629975
1298	2022232 34593 22767 34265 0.1 180 1800 0 737280 2170880 810339532800
1297	2056825 1709 22767 32902 156.159455866512 176.195424618318 53 512 512 27136 13893632
1332	2058534 221 23951 32894 158.180424767613 176.195424618318 7 512 512 3584 1835008
1330	2058755 405 23750 31863 158.141424767613 176.125424618318 12 0 0.40000000596046 1.8231602162123 0.59736181816629
1407	2059160 112 27982 31043 166.154424718017 174.17842503546 4 1 4 10 30
1329	2059272 330 23750 31863 158.141424767613 176.125424618318 12 1 12 78 650
1331	2059602 215 23751 31864 158.141424767613 176.125424618318 8 1 8 36 204
1370	2059817 72 27235 30931 164.136 174.178 3 540 540 1620 874800
1371	2059889 72 27235 30931 164.136 174.178 3 540 540 1620 874800
1402	2059961 525 27440 32978 164.13697307818 176.195849530038 16 570 570 9120 5198400
1383	2060486 72 27242 30938 164.136 174.178 3 570 570 1710 974700
1372	2060558 72 27238 30934 164.136 174.178 3 542 542 1626 881292
1411	2060630 362 28192 32978 166.155442318162 176.195849530038 11 542 542 5962 3231404
1404	2060992 163 27440 32012 164.13697307818 176.125907568659 5 570 570 2850 1624500
1403	2061155 163 27440 32012 164.13697307818 176.125907568659 5 570 570 2850 1624500
1410	2061318 362 28192 32978 166.155442318162 176.195849530038 11 570 570 6270 3573900
1409	2061680 362 28192 32978 166.155442318162 176.195849530038 11 570 570 6270 3573900
1408	2062042 362 28192 32978 166.155442318162 176.195849530038 11 570 570 6270 3573900
1388	2062404 81 27275 30973 164.136424 174.178424 3 570 570 1710 974700
1387	2062485 81 27275 30973 164.136424 174.178424 3 570 570 1710 974700
1386	2062566 81 27275 30973 164.136424 174.178424 3 570 570 1710 974700
1384	2062647 141 27242 30973 164.136 174.178424 6 0 1 3 3
1382	2062788 87 27242 30938 164.136 174.178 3 12000000 12000000 36000000 4.32e+014
1380	2062875 66 27242 30938 164.136 174.178 3 0 0 0 0
1379	2062941 72 27242 30938 164.136 174.178 3 570 570 1710 974700
1373	2063013 72 27238 30934 164.136 174.178 3 570 570 1710 974700
1374	2063085 132 27238 30938 164.136 174.178 6 0 1 3 3
1389	2063217 96 27275 30973 164.136424 174.178424 3 0.000424 0.000424 0.001272 5.39328e-007
1381	2063313 141 27242 30973 164.136 174.178424 6 0 1 3 3
1376	2063454 132 27238 30937 164.136 174.178 6 0 1 3 3
1375	2063586 69 27238 30934 164.136 174.178 3 10 13 34 390
1355	2063655 21 24079 24079 159.1 159.1 1 15 15 15 225
1385	2063676 282 27243 30974 164.136 174.178424 12 0 2 12 18
1354	2063958 1302 24079 32977 159.1 176.195849530038 44 0 3 77 181
1352	2065260 201 24079 30974 159.1 174.178424 9 0 3 17 43
1353	2065461 20 24079 24079 159.1 159.1 1 3 3 3 9
1377	2065481 434 27239 32981 164.136 176.195849530038 14 520 520 7280 3785600
1369	2065915 72 27233 30929 164.136 174.178 3 520 520 1560 811200
1378	2065987 411 27239 32981 164.136 176.195849530038 14 1 14 105 1015
1469	2066398 114 29453 34247 169.155998668752 179.1 3 0 0.079627321846004 0.13562599059802 0.0094763612863646
1367	2066512 34573 27232 34265 0.1 180 1800 0 204800 696320 88919244800
1366	2101085 506 27232 32982 164.136 176.195849530038 17 512 512 8704 4456448
1368	2101591 72 27232 30928 164.136 174.178 3 512 512 1536 786432
1364	2101663 83 27224 34247 164.1 179.1 4 0 0.25 0.25 0.0625
1503	2101746 20 34247 34247 179.1 179.1 1 1 1 1 1
1363	2101766 80 27224 34247 164.1 179.1 4 1 4 10 30
1365	2101846 60 27230 30757 164.1 174.1 3 1 3 6 14
92	2101906 370 272 33576 19.176424581457 177.189424408692 14 540 540 7560 4082400
93	2102276 370 272 33576 19.176424581457 177.189424408692 14 540 540 7560 4082400
78	2102646 1259 260 33885 19.109424581457 177.243848774425 42 570 570 23940 13645800
103	2103905 384 279 33739 19.176424581457 177.190069620767 14 570 570 7980 4548600
94	2104289 370 275 33579 19.176424581457 177.189424408692 14 542 542 7588 4112696
82	2104659 1166 260 33885 19.109424581457 177.243848774425 39 542 542 21138 11456796
1326	2105825 99 23330 32527 157.124024326864 176.170947076887 3 570 570 1710 974700
1325	2105924 99 23330 32527 157.124024326864 176.170947076887 3 570 570 1710 974700
81	2106023 1166 260 33885 19.109424581457 177.243848774425 39 570 570 22230 12671100
80	2107189 1166 260 33885 19.109424581457 177.243848774425 39 570 570 22230 12671100
79	2108355 1166 260 33885 19.109424581457 177.243848774425 39 570 570 22230 12671100
108	2109521 399 285 33774 19.176848581457 177.190493620767 14 570 570 7980 4548600
107	2109920 399 285 33774 19.176848581457 177.190493620767 14 570 570 7980 4548600
106	2110319 399 285 33774 19.176848581457 177.190493620767 14 570 570 7980 4548600
104	2110718 727 279 33774 19.176424581457 177.190493620767 28 0 1 14 14
102	2111445 454 279 33739 19.176424581457 177.190069620767 14 12000000 12000000 168000000 2.016e+015
100	2111899 409 279 33739 19.176424581457 177.190069620767 14 0 0.001313002696 0.00338358315 3.6767127862302e-006
99	2112308 370 279 33739 19.176424581457 177.190069620767 14 570 570 7980 4548600
95	2112678 370 275 33579 19.176424581457 177.189424408692 14 570 570 7980 4548600
96	2113048 684 275 33739 19.176424581457 177.190069620767 28 0 1 14 14
109	2113732 469 285 33774 19.176848581457 177.190493620767 14 0.000424 0.000424 0.005936 2.516864e-006
101	2114201 727 279 33774 19.176424581457 177.190493620767 28 0 1 14 14
98	2114928 1032 275 33738 19.176424581457 177.190069620767 40 0 1 20 20
97	2115960 344 275 33579 19.176424581457 177.189424408692 14 0 13 81 643
49	2116304 16 212 212 17.1 17.1 1 15 15 15 225
105	2116320 1454 280 33775 19.176424581457 177.190493620767 56 0 2 56 84
48	2117774 3180 212 33884 17.1 177.243848774425 117 0 3 190 448
46	2120954 744 212 33775 17.1 177.190493620767 31 0 3 72 186
47	2121698 15 212 212 17.1 17.1 1 3 3 3 9
83	2121713 1536 263 33888 19.109424581457 177.243848774425 53 520 520 27560 14331200
91	2123249 370 270 33574 19.176424581457 177.189424408692 14 520 520 7280 3785600
84	2123619 1474 263 33888 19.109424581457 177.243848774425 53 1 53 1431 51039
119	2125093 706 522 33018 27.114 177.1 30 0 0.089999999999996 0.42311191732401 0.026562516214718
86	2125799 29738 264 34265 0.1 180 1800 0 204800 2949120 325477990400
85	2155537 1995 264 33889 19.109424581457 177.243848774425 72 512 512 36864 18874368
90	2157532 370 269 33573 19.176424581457 177.189424408692 14 512 512 7168 3670016
88	2157902 1447 264 33573 19.109424581457 177.189424408692 46 0 0.58695650100708 14.777404278517 6.2387556068834
199	2159349 564 874 33573 37.1 177.189424408692 27 1 27 378 6930
87	2159913 958 264 33573 19.109424581457 177.189424408692 46 1 46 1081 33511
89	2160871 412 265 20642 19.109424581457 147.1 19 1 19 190 2470
1418	2161283 57 28841 34141 168.117 178.135424924552 2 540 540 1080 583200
1419	2161340 57 28841 34141 168.117 178.135424924552 2 540 540 1080 583200
1390	2161397 293 27285 34103 164.1364248691 178.134011055978 9 570 570 5130 2924100
1429	2161690 57 28848 34148 168.117 178.135424924552 2 570 570 1140 649800
1420	2161747 57 28844 34144 168.117 178.135424924552 2 542 542 1084 587528
1394	2161804 260 27285 34103 164.1364248691 178.134011055978 8 542 542 4336 2350112
1500	2162064 33 31201 31201 174.179024498937 174.179024498937 1 570 570 570 324900
1499	2162097 33 31201 31201 174.179024498937 174.179024498937 1 570 570 570 324900
1393	2162130 260 27285 34103 164.1364248691 178.134011055978 8 570 570 4560 2599200
1392	2162390 260 27285 34103 164.1364248691 178.134011055978 8 570 570 4560 2599200
1391	2162650 260 27285 34103 164.1364248691 178.134011055978 8 570 570 4560 2599200
1434	2162910 60 28882 34183 168.117424 178.135848924552 2 570 570 1140 649800
1433	2162970 60 28882 34183 168.117424 178.135848924552 2 570 570 1140 649800
1432	2163030 60 28882 34183 168.117424 178.135848924552 2 570 570 1140 649800
1430	2163090 109 28848 34183 168.117 178.135848924552 4 0 1 2 2
1428	2163199 67 28848 34148 168.117 178.135424924552 2 12000000 12000000 24000000 2.88e+014
1426	2163266 53 28848 34148 168.117 178.135424924552 2 0 0 0 0
1425	2163319 57 28848 34148 168.117 178.135424924552 2 570 570 1140 649800
1421	2163376 57 28844 34144 168.117 178.135424924552 2 570 570 1140 649800
1422	2163433 106 28844 34148 168.117 178.135424924552 4 0 1 2 2
1435	2163539 70 28882 34183 168.117424 178.135848924552 2 0.000424 0.000424 0.000848 3.59552e-007
1427	2163609 109 28848 34183 168.117 178.135848924552 4 0 1 2 2
1424	2163718 106 28844 34147 168.117 178.135424924552 4 0 1 2 2
1423	2163824 53 28844 34144 168.117 178.135424924552 2 3 4 7 25
1362	2163877 21 27126 27126 163.1 163.1 1 15 15 15 225
1431	2163898 218 28849 34184 168.117 178.135848924552 8 0 2 8 12
1361	2164116 679 27126 34184 163.1 178.135848924552 23 0 3 39 93
1359	2164795 169 27126 34184 163.1 178.135848924552 7 0 3 12 30
1360	2164964 20 27126 27126 163.1 163.1 1 3 3 3 9
1395	2164984 317 27288 34145 164.1364248691 178.135424924552 10 520 520 5200 2704000
1417	2165301 57 28839 34139 168.117 178.135424924552 2 520 520 1040 540800
1396	2165358 298 27288 34145 164.1364248691 178.135424924552 10 1 10 55 385
1448	2165656 104 28982 34231 168.118089012906 178.19 3 0 0.090000000000003 0.10808901290599 0.0084272123879136
1398	2165760 34560 27289 34265 0.1 180 1800 0 245760 573440 110729625600
1397	2200320 428 27289 34231 164.1364248691 178.19 14 512 512 7168 3670016
1416	2200748 57 28838 34138 168.117 178.135424924552 2 512 512 1024 524288
1400	2200805 153 27289 34026 164.1364248691 178.133424924552 5 0 0.33333334326744 0.78333334624767 0.21361111892594
1479	2200958 20 30558 30558 173.1 173.1 1 1 1 1 1
1399	2200978 120 27289 34026 164.1364248691 178.133424924552 5 1 5 15 55
1401	2201098 100 27290 34027 164.1364248691 178.133424924552 4 1 4 10 30
1451	2201198 33 29127 29127 168.167425064891 168.167425064891 1 540 540 540 291600
1452	2201231 33 29127 29127 168.167425064891 168.167425064891 1 540 540 540 291600
1436	2201264 428 28906 32168 168.117425064891 176.126650378218 13 570 570 7410 4223700
1462	2201692 33 29134 29134 168.167425064891 168.167425064891 1 570 570 570 324900
1453	2201725 33 29130 29130 168.167425064891 168.167425064891 1 542 542 542 293764
1440	2201758 329 28906 32168 168.117425064891 176.126650378218 10 542 542 5420 2937640
1471	2202087 99 29584 32020 169.156545902733 176.125907921744 3 570 570 1710 974700
1470	2202186 99 29584 32020 169.156545902733 176.125907921744 3 570 570 1710 974700
1439	2202285 329 28906 32168 168.117425064891 176.126650378218 10 570 570 5700 3249000
1438	2202614 329 28906 32168 168.117425064891 176.126650378218 10 570 570 5700 3249000
1437	2202943 329 28906 32168 168.117425064891 176.126650378218 10 570 570 5700 3249000
1467	2203272 33 29168 29168 168.167849064891 168.167849064891 1 570 570 570 324900
1466	2203305 33 29168 29168 168.167849064891 168.167849064891 1 570 570 570 324900
1465	2203338 33 29168 29168 168.167849064891 168.167849064891 1 570 570 570 324900
1463	2203371 62 29134 29168 168.167425064891 168.167849064891 2 0 1 1 1
1461	2203433 38 29134 29134 168.167425064891 168.167425064891 1 12000000 12000000 12000000 1.44e+014
1459	2203471 31 29134 29134 168.167425064891 168.167425064891 1 0 0 0 0
1458	2203502 33 29134 29134 168.167425064891 168.167425064891 1 570 570 570 324900
1454	2203535 33 29130 29130 168.167425064891 168.167425064891 1 570 570 570 324900
1455	2203568 62 29130 29134 168.167425064891 168.167425064891 2 0 1 1 1
1468	2203630 38 29168 29168 168.167849064891 168.167849064891 1 0.000424 0.000424 0.000424 1.79776e-007
1460	2203668 62 29134 29168 168.167425064891 168.167849064891 2 0 1 1 1
1457	2203730 62 29130 29133 168.167425064891 168.167425064891 2 0 1 1 1
1456	2203792 32 29130 29130 168.167425064891 168.167425064891 1 10 10 10 100
1415	2203824 21 28561 28561 167.1 167.1 1 15 15 15 225
1464	2203845 124 29135 29169 168.167425064891 168.167849064891 4 0 2 4 6
1414	2203969 917 28561 32167 167.1 176.126650378218 30 0 3 56 136
1412	2204886 122 28561 29169 167.1 168.167849064891 5 0 3 7 17
1413	2205008 20 28561 28561 167.1 167.1 1 3 3 3 9
1441	2205028 362 28909 32171 168.117425064891 176.126650378218 11 520 520 5720 2974400
1450	2205390 33 29125 29125 168.167425064891 168.167425064891 1 520 520 520 270400
1442	2205423 342 28909 32171 168.117425064891 176.126650378218 11 1 11 66 506
1478	2205765 58 30543 33024 172.174 177.1 2 0 0.074000000000012 0.074000000000012 0.0054760000000018
1444	2205823 34569 28910 34265 0.1 180 1800 0 204800 614400 88919244800
1443	2240392 485 28910 32172 168.117425064891 176.126650378218 15 512 512 7680 3932160
1449	2240877 33 29124 29124 168.167425064891 168.167425064891 1 512 512 512 262144
1446	2240910 148 28910 33024 168.117425064891 177.1 5 0 0.20000000298023 0.20000000298023 0.040000001192093
1502	2241058 20 33024 33024 177.1 177.1 1 1 1 1 1
1445	2241078 133 28910 33024 168.117425064891 177.1 5 1 5 15 55
1447	2241211 113 28911 30981 168.117425064891 174.178424416983 4 1 4 10 30
1480	2241324 32 30623 30623 173.14842506502 173.14842506502 1 570 570 570 324900
1484	2241356 32 30623 30623 173.14842506502 173.14842506502 1 542 542 542 293764
1483	2241388 32 30623 30623 173.14842506502 173.14842506502 1 570 570 570 324900
1482	2241420 32 30623 30623 173.14842506502 173.14842506502 1 570 570 570 324900
1481	2241452 32 30623 30623 173.14842506502 173.14842506502 1 570 570 570 324900
1475	2241484 21 29672 29672 171.1 171.1 1 15 15 15 225
1474	2241505 80 29672 30622 171.1 173.14842506502 3 1 3 5 11
1472	2241585 60 29672 29672 171.1 171.1 3 0 2 2 4
1473	2241645 20 29672 29672 171.1 171.1 1 3 3 3 9
1485	2241665 32 30626 30626 173.14842506502 173.14842506502 1 520 520 520 270400
1486	2241697 30 30626 30626 173.14842506502 173.14842506502 1 1 1 1 1
1501	2241727 38 31775 31775 176.119 176.119 1 0.019000000000005 0.019000000000005 0.019000000000005 0.00036100000000021
1488	2241765 34554 30627 34265 0.1 180 1800 0 40960 122880 5033164800
1487	2276319 88 30627 31775 173.14842506502 176.119 3 512 512 1536 786432
1490	2276407 50 30627 31770 173.14842506502 176.1 2 0 0 0 0
1489	2276457 50 30627 31770 173.14842506502 176.1 2 1 2 3 5
1491	2276507 50 30628 31774 173.14842506502 176.1 2 1 2 3 5
vector 1508 Scenario.node[39].app[0] throughput:vector ETV
attr source throughput(packetReceived)
attr title "throughput, vector"
attr unit bps
1507	2276705 21 34248 34248 179.1 179.1 1 15 15 15 225
1506	2276726 20 34248 34248 179.1 179.1 1 1 1 1 1
1504	2276746 60 34248 34248 179.1 179.1 3 0 2 2 4
1505	2276806 20 34248 34248 179.1 179.1 1 3 3 3 9
1508	2276826 34542 34265 34265 0.1 180 1800 0 0 0 0
216	2311368 726 976 33098 42.146 177.146424579798 26 540 540 14040 7581600
217	2312094 726 976 33098 42.146 177.146424579798 26 540 540 14040 7581600
428	2312820 1849 2194 33689 62.171424575573 177.189933545322 59 570 570 33630 19169100
229	2314669 725 983 33348 42.146 177.147564935447 26 570 570 14820 8447400
218	2315394 726 979 33101 42.146 177.146424579798 26 542 542 14092 7637864
432	2316120 1657 2194 33689 62.171424575573 177.189933545322 53 542 542 28726 15569492
1045	2317777 198 14260 32569 125.134467961613 176.171011575533 6 570 570 3420 1949400
1044	2317975 198 14260 32569 125.134467961613 176.171011575533 6 570 570 3420 1949400
431	2318173 1657 2194 33689 62.171424575573 177.189933545322 53 570 570 30210 17219700
430	2319830 1657 2194 33689 62.171424575573 177.189933545322 53 570 570 30210 17219700
429	2321487 1657 2194 33689 62.171424575573 177.189933545322 53 570 570 30210 17219700
234	2323144 752 993 33383 42.146424 177.147988935447 26 570 570 14820 8447400
233	2323896 752 993 33383 42.146424 177.147988935447 26 570 570 14820 8447400
232	2324648 752 993 33383 42.146424 177.147988935447 26 570 570 14820 8447400
230	2325400 1373 983 33383 42.146 177.147988935447 52 0 1 26 26
228	2326773 855 983 33348 42.146 177.147564935447 26 12000000 12000000 312000000 3.744e+015
226	2327628 785 983 33348 42.146 177.147564935447 26 0 0.001700709288 0.006899210798 8.0762542732936e-006
225	2328413 725 983 33348 42.146 177.147564935447 26 570 570 14820 8447400
219	2329138 726 979 33101 42.146 177.146424579798 26 570 570 14820 8447400
220	2329864 1347 979 33348 42.146 177.147564935447 52 0 1 26 26
235	2331211 882 993 33383 42.146424 177.147988935447 26 0.000424 0.000424 0.011024 4.674176e-006
227	2332093 1373 983 33383 42.146 177.147988935447 52 0 1 26 26
222	2333466 1945 979 33347 42.146 177.147564935447 72 0 1 36 36
221	2335411 685 979 33101 42.146 177.146424579798 26 0 15 198 2212
203	2336096 17 875 875 37.1 37.1 1 15 15 15 225
231	2336113 2746 984 33384 42.146 177.147988935447 104 0 2 104 156
202	2338859 4971 875 33688 37.1 177.189933545322 175 0 3 271 633
200	2343830 1421 875 33384 37.1 177.147988935447 55 0 3 132 342
201	2345251 16 875 875 37.1 37.1 1 3 3 3 9
223	2345267 2383 980 33692 42.146 177.189933545322 79 520 520 41080 21361600
215	2347650 726 974 33096 42.146 177.146424579798 26 520 520 13520 7030400
224	2348376 2295 980 33692 42.146 177.189933545322 79 1 79 3160 167480
247	2350671 697 1072 33019 47.121 177.1 25 0 0.15884913979801 0.76420630562202 0.072876042087197
213	2351368 31425 973 34265 0.1 180 1800 0 327680 4136960 602302054400
212	2382793 2925 973 33693 42.146 177.189933545322 101 512 512 51712 26476544
214	2385718 726 973 33095 42.146 177.146424579798 26 512 512 13312 6815744
210	2386444 1702 970 33095 42.1 177.146424579798 48 0 0.54166668653488 12.840033769608 4.8489196862577
400	2388146 638 2162 33095 62.1 177.146424579798 26 1 26 351 6201
209	2388784 1130 970 33095 42.1 177.146424579798 48 1 48 1176 38024
211	2389914 483 972 23051 42.1 157.1 22 1 22 253 3795

