file 932548 1650659030                                          
version 2
run General-0-20220422-21:23:45-7296
attr configname General
attr datetime 20220422-21:23:45
attr experiment General
attr inifile omnetpp.ini
attr iterationvars ""
attr iterationvarsf ""
attr measurement ""
attr network Scenario
attr processid 7296
attr repetition 0
attr replication #0
attr resultdir results
attr runnumber 0
attr seedset 0
param *.node[*].numApps 1
param *.node[*].app[0].typename "\"v2v_caching.veins_inet.VeinsInetSampleApplication\""
param *.node[*].app[0].interface "\"wlan0\""
param *.node[*].wlan[0].opMode "\"p\""
param *.node[*].wlan[0].radio.typename "\"Ieee80211DimensionalRadio\""
param *.node[*].wlan[0].radio.bandName "\"5.9 GHz\""
param *.node[*].wlan[0].radio.channelNumber 3
param *.node[*].wlan[0].radio.transmitter.power 20mW
param *.node[*].wlan[0].radio.bandwidth "10 MHz"
param *.node[*].wlan[*].radio.antenna.mobility.typename "\"AttachedMobility\""
param *.node[*].wlan[*].radio.antenna.mobility.mobilityModule "\"^.^.^.^.mobility\""
param *.node[*].wlan[*].radio.antenna.mobility.offsetX -2.5m
param *.node[*].wlan[*].radio.antenna.mobility.offsetZ 1.5m
param *.node[*].wlan[*].radio.antenna.mobility.constraintAreaMinX 0m
param *.node[*].wlan[*].radio.antenna.mobility.constraintAreaMaxX 0m
param *.node[*].wlan[*].radio.antenna.mobility.constraintAreaMinY 0m
param *.node[*].wlan[*].radio.antenna.mobility.constraintAreaMaxY 0m
param *.node[*].wlan[*].radio.antenna.mobility.constraintAreaMinZ 0m
param *.node[*].wlan[*].radio.antenna.mobility.constraintAreaMaxZ 0m
param *.node[*].ipv4.configurator.typename "\"HostAutoConfigurator\""
param *.node[*].ipv4.configurator.interfaces "\"wlan0\""
param *.node[*].ipv4.configurator.mcastGroups "\"224.0.0.1\""
param *.node[*].mobility.typename "\"VeinsInetMobility\""
param *.manager.updateInterval 0.1s
param *.manager.host "\"localhost\""
param *.manager.port 9999
param *.manager.autoShutdown true
param *.manager.launchConfig "xmldoc(\"a14.launchd.xml\")"
param *.manager.moduleType "\"v2v_caching.veins_inet.VeinsInetCar\""
param *.radioMedium.obstacleLoss.typename "\"IdealObstacleLoss\""

vector 0 Scenario.node[0].wlan[0].radio radioMode:vector ETV
attr interpolationmode sample-hold
attr source radioModeChanged
attr title "Radio mode, vector"
vector 1 Scenario.node[0].wlan[0].radio radioChannel:vector ETV
attr interpolationmode sample-hold
attr source radioChannelChanged
attr title "Radio channel, vector"
vector 2 Scenario.node[0].wlan[0].radio receptionState:vector ETV
attr interpolationmode sample-hold
attr source receptionStateChanged
attr title "Radio reception state, vector"
vector 3 Scenario.node[0].wlan[0].mac.dcf.recoveryProcedure contentionWindowChanged:vector ETV
attr interpolationmode sample-hold
attr title "contention window, vector"
vector 4 Scenario.node[0].cache requestsReceived:vector ETV
attr interpolationmode none
attr source receive
attr title "requests received, vector"
vector 5 Scenario.node[0].cache hitRate:vector ETV
attr interpolationmode none
attr source hitRate
attr title "hit rate, vector"
vector 6 Scenario.node[1].wlan[0].radio radioMode:vector ETV
attr interpolationmode sample-hold
attr source radioModeChanged
attr title "Radio mode, vector"
vector 7 Scenario.node[1].wlan[0].radio radioChannel:vector ETV
attr interpolationmode sample-hold
attr source radioChannelChanged
attr title "Radio channel, vector"
vector 8 Scenario.node[1].wlan[0].radio receptionState:vector ETV
attr interpolationmode sample-hold
attr source receptionStateChanged
attr title "Radio reception state, vector"
vector 9 Scenario.node[1].wlan[0].mac.dcf.recoveryProcedure contentionWindowChanged:vector ETV
attr interpolationmode sample-hold
attr title "contention window, vector"
vector 10 Scenario.node[0].dataServer requestsReceived:vector ETV
attr interpolationmode none
attr source receive
attr title "requests received, vector"
vector 11 Scenario.node[0].app[0] packetReceived:vector(packetBytes) ETV
attr interpolationmode none
attr source packetReceived
attr title "packets received, vector(packetBytes)"
vector 12 Scenario.node[0].app[0] throughput:vector ETV
attr source throughput(packetReceived)
attr title "throughput, vector"
attr unit bps
vector 13 Scenario.node[0].app[0] RequestReceiveTime:vector ETV
attr interpolationmode none
attr source receiveTime
attr title "request time, vector"
vector 14 Scenario.node[1].cache requestsReceived:vector ETV
attr interpolationmode none
attr source receive
attr title "requests received, vector"
vector 15 Scenario.node[1].cache hitRate:vector ETV
attr interpolationmode none
attr source hitRate
attr title "hit rate, vector"
vector 16 Scenario.node[1].dataServer requestsReceived:vector ETV
attr interpolationmode none
attr source receive
attr title "requests received, vector"
vector 17 Scenario.node[1].app[0] packetReceived:vector(packetBytes) ETV
attr interpolationmode none
attr source packetReceived
attr title "packets received, vector(packetBytes)"
vector 18 Scenario.node[1].app[0] throughput:vector ETV
attr source throughput(packetReceived)
attr title "throughput, vector"
attr unit bps
vector 19 Scenario.node[1].app[0] packetSent:vector(packetBytes) ETV
attr interpolationmode none
attr source packetSent
attr title "packets sent, vector(packetBytes)"
vector 20 Scenario.node[1].udp packetSent:vector(packetBytes) ETV
attr interpolationmode none
attr source packetSent
attr title "packets sent, vector(packetBytes)"
vector 21 Scenario.node[1].lo[0].lo rcvdPkFromHl:vector(packetBytes) ETV
attr interpolationmode none
attr source packetReceivedFromUpper
attr title "packets received from higher layer, vector(packetBytes)"
vector 22 Scenario.node[1].lo[0].lo passedUpPk:vector(packetBytes) ETV
attr interpolationmode none
attr source packetSentToUpper
attr title "packets passed to higher layer, vector(packetBytes)"
vector 23 Scenario.node[1].wlan[0].mac packetReceivedFromUpper:vector(packetBytes) ETV
attr interpolationmode none
attr title "packets received from upper layer, vector(packetBytes)"
vector 24 Scenario.node[1].wlan[0].mac.dcf.channelAccess.pendingQueue packetPushed:vector(packetBytes) ETV
attr interpolationmode none
attr title "packet pushed, vector(packetBytes)"
vector 25 Scenario.node[1].wlan[0].mac.dcf.channelAccess.pendingQueue queueLength:vector ETV
attr interpolationmode sample-hold
attr source "count(packetPushed) - count(packetPopped) - count(packetRemoved) - count(packetDropped)"
attr title "queue length, vector"
vector 26 Scenario.node[1].wlan[0].mac.dcf.channelAccess.contention backoffPeriodGenerated:vector ETV
attr interpolationmode none
attr title "backoff periods, vector"
vector 27 Scenario.node[1].wlan[0].mac.dcf.channelAccess.contention backoffActive:vector ETV
attr interpolationmode sample-hold
attr source count(backoffStarted)-count(backoffStopped)
attr title "backoff active, vector"
vector 28 Scenario.node[1].udp packetReceived:vector(packetBytes) ETV
attr interpolationmode none
attr source packetReceived
attr title "packets received, vector(packetBytes)"
vector 29 Scenario.node[1].udp passedUpPk:vector(count) ETV
attr interpolationmode none
attr source packetSentToUpper
attr title "packets passed up, vector(count)"
vector 30 Scenario.node[1].wlan[0].mac.dcf.channelAccess.pendingQueue packetPopped:vector(packetBytes) ETV
attr interpolationmode none
attr title "packet popped, vector(packetBytes)"
vector 31 Scenario.node[1].wlan[0].mac.dcf.channelAccess.pendingQueue queueingTime:vector ETV
attr interpolationmode none
attr source queueingTime(packetPopped)
attr title "queueing times, vector"
attr unit s
vector 32 Scenario.node[1].wlan[0].mac.dcf.channelAccess.inProgressFrames queueLength:vector ETV
attr interpolationmode sample-hold
attr source "count(packetEnqueued) - count(packetDequeued)"
attr title "queue length, vector"
vector 33 Scenario.node[1].wlan[0].mac.dcf datarateSelected:vector ETV
attr interpolationmode none
attr title "datarates selected, vector"
vector 34 Scenario.node[1].wlan[0].mac packetSentToLower:vector(packetBytes) ETV
attr interpolationmode none
attr title "packets sent to lower layer, vector(packetBytes)"
vector 35 Scenario.node[1].wlan[0].mac.dcf frameSequenceActive:vector ETV
attr interpolationmode sample-hold
attr source count(frameSequenceStarted)-count(frameSequenceFinished)
attr title "frame sequence active, vector"
vector 36 Scenario.node[1].wlan[0].radio transmissionState:vector ETV
attr interpolationmode sample-hold
attr source transmissionStateChanged
attr title "Radio transmission state, vector"
vector 37 Scenario.node[1].wlan[0].mac.dcf packetSentToPeer:vector(packetBytes) ETV
attr interpolationmode none
attr title "packets sent, vector(packetBytes)"
vector 38 Scenario.node[1].wlan[0].mac.dcf packetSentToPeerMulticast:vector(packetBytes) ETV
attr interpolationmode none
attr source ieee80211Multicast(packetSentToPeer)
attr title "packets sent: multicast, vector(packetBytes)"
vector 39 Scenario.node[1].wlan[0].mac.dcf packetSentToPeerWithoutRetry:vector(packetBytes) ETV
attr interpolationmode none
attr source ieee80211NotRetry(packetSentToPeer)
attr title "packets sent: without retry, vector(packetBytes)"
vector 40 Scenario.node[1].wlan[0].mac.dcf.channelAccess.inProgressFrames queueingTime:vector ETV
attr interpolationmode none
attr source queueingTime(packetDequeued)
attr title "queueing times, vector"
vector 41 Scenario.node[0].app[0] packetSent:vector(packetBytes) ETV
attr interpolationmode none
attr source packetSent
attr title "packets sent, vector(packetBytes)"
vector 42 Scenario.node[0].udp packetSent:vector(packetBytes) ETV
attr interpolationmode none
attr source packetSent
attr title "packets sent, vector(packetBytes)"
vector 43 Scenario.node[0].lo[0].lo rcvdPkFromHl:vector(packetBytes) ETV
attr interpolationmode none
attr source packetReceivedFromUpper
attr title "packets received from higher layer, vector(packetBytes)"
vector 44 Scenario.node[0].lo[0].lo passedUpPk:vector(packetBytes) ETV
attr interpolationmode none
attr source packetSentToUpper
attr title "packets passed to higher layer, vector(packetBytes)"
vector 45 Scenario.node[0].wlan[0].mac packetReceivedFromUpper:vector(packetBytes) ETV
attr interpolationmode none
attr title "packets received from upper layer, vector(packetBytes)"
vector 46 Scenario.node[0].wlan[0].mac.dcf.channelAccess.pendingQueue packetPushed:vector(packetBytes) ETV
attr interpolationmode none
attr title "packet pushed, vector(packetBytes)"
vector 47 Scenario.node[0].wlan[0].mac.dcf.channelAccess.pendingQueue queueLength:vector ETV
attr interpolationmode sample-hold
attr source "count(packetPushed) - count(packetPopped) - count(packetRemoved) - count(packetDropped)"
attr title "queue length, vector"
vector 48 Scenario.node[0].wlan[0].mac.dcf.channelAccess.contention backoffPeriodGenerated:vector ETV
attr interpolationmode none
attr title "backoff periods, vector"
vector 49 Scenario.node[0].wlan[0].mac.dcf.channelAccess.contention backoffActive:vector ETV
attr interpolationmode sample-hold
attr source count(backoffStarted)-count(backoffStopped)
attr title "backoff active, vector"
vector 50 Scenario.node[0].udp packetReceived:vector(packetBytes) ETV
attr interpolationmode none
attr source packetReceived
attr title "packets received, vector(packetBytes)"
vector 51 Scenario.node[0].udp passedUpPk:vector(count) ETV
attr interpolationmode none
attr source packetSentToUpper
attr title "packets passed up, vector(count)"
vector 52 Scenario.node[0].wlan[0].mac.dcf.channelAccess.pendingQueue packetPopped:vector(packetBytes) ETV
attr interpolationmode none
attr title "packet popped, vector(packetBytes)"
vector 53 Scenario.node[0].wlan[0].mac.dcf.channelAccess.pendingQueue queueingTime:vector ETV
attr interpolationmode none
attr source queueingTime(packetPopped)
attr title "queueing times, vector"
attr unit s
vector 54 Scenario.node[0].wlan[0].mac.dcf.channelAccess.inProgressFrames queueLength:vector ETV
attr interpolationmode sample-hold
attr source "count(packetEnqueued) - count(packetDequeued)"
attr title "queue length, vector"
vector 55 Scenario.node[0].wlan[0].mac.dcf datarateSelected:vector ETV
attr interpolationmode none
attr title "datarates selected, vector"
vector 56 Scenario.node[0].wlan[0].mac packetSentToLower:vector(packetBytes) ETV
attr interpolationmode none
attr title "packets sent to lower layer, vector(packetBytes)"
vector 57 Scenario.node[0].wlan[0].mac.dcf frameSequenceActive:vector ETV
attr interpolationmode sample-hold
attr source count(frameSequenceStarted)-count(frameSequenceFinished)
attr title "frame sequence active, vector"
vector 58 Scenario.node[0].wlan[0].radio transmissionState:vector ETV
attr interpolationmode sample-hold
attr source transmissionStateChanged
attr title "Radio transmission state, vector"
vector 59 Scenario.node[0].wlan[0].mac.dcf packetSentToPeer:vector(packetBytes) ETV
attr interpolationmode none
attr title "packets sent, vector(packetBytes)"
vector 60 Scenario.node[0].wlan[0].mac.dcf packetSentToPeerMulticast:vector(packetBytes) ETV
attr interpolationmode none
attr source ieee80211Multicast(packetSentToPeer)
attr title "packets sent: multicast, vector(packetBytes)"
vector 61 Scenario.node[0].wlan[0].mac.dcf packetSentToPeerWithoutRetry:vector(packetBytes) ETV
attr interpolationmode none
attr source ieee80211NotRetry(packetSentToPeer)
attr title "packets sent: without retry, vector(packetBytes)"
vector 62 Scenario.node[0].wlan[0].mac.dcf.channelAccess.inProgressFrames queueingTime:vector ETV
attr interpolationmode none
attr source queueingTime(packetDequeued)
attr title "queueing times, vector"
vector 63 Scenario.node[2].wlan[0].radio radioMode:vector ETV
attr interpolationmode sample-hold
attr source radioModeChanged
attr title "Radio mode, vector"
vector 64 Scenario.node[2].wlan[0].radio radioChannel:vector ETV
attr interpolationmode sample-hold
attr source radioChannelChanged
attr title "Radio channel, vector"
vector 65 Scenario.node[2].wlan[0].radio receptionState:vector ETV
attr interpolationmode sample-hold
attr source receptionStateChanged
attr title "Radio reception state, vector"
vector 66 Scenario.node[2].wlan[0].mac.dcf.recoveryProcedure contentionWindowChanged:vector ETV
attr interpolationmode sample-hold
attr title "contention window, vector"
vector 67 Scenario.node[1].app[0] RequestReceiveTime:vector ETV
attr interpolationmode none
attr source receiveTime
attr title "request time, vector"
vector 68 Scenario.node[2].cache requestsReceived:vector ETV
attr interpolationmode none
attr source receive
attr title "requests received, vector"
vector 69 Scenario.node[2].cache hitRate:vector ETV
attr interpolationmode none
attr source hitRate
attr title "hit rate, vector"
vector 70 Scenario.node[2].dataServer requestsReceived:vector ETV
attr interpolationmode none
attr source receive
attr title "requests received, vector"
vector 71 Scenario.node[2].app[0] packetReceived:vector(packetBytes) ETV
attr interpolationmode none
attr source packetReceived
attr title "packets received, vector(packetBytes)"
vector 72 Scenario.node[2].app[0] throughput:vector ETV
attr source throughput(packetReceived)
attr title "throughput, vector"
attr unit bps
vector 73 Scenario.node[2].app[0] RequestReceiveTime:vector ETV
attr interpolationmode none
attr source receiveTime
attr title "request time, vector"
vector 74 Scenario.node[0].cache requestsAnswered:vector ETV
attr interpolationmode none
attr source answer
attr title "requests answered, vector"
vector 75 Scenario.node[3].wlan[0].radio radioMode:vector ETV
attr interpolationmode sample-hold
attr source radioModeChanged
attr title "Radio mode, vector"
vector 76 Scenario.node[3].wlan[0].radio radioChannel:vector ETV
attr interpolationmode sample-hold
attr source radioChannelChanged
attr title "Radio channel, vector"
vector 77 Scenario.node[3].wlan[0].radio receptionState:vector ETV
attr interpolationmode sample-hold
attr source receptionStateChanged
attr title "Radio reception state, vector"
vector 78 Scenario.node[3].wlan[0].mac.dcf.recoveryProcedure contentionWindowChanged:vector ETV
attr interpolationmode sample-hold
attr title "contention window, vector"
vector 79 Scenario.node[1].cache requestsAnswered:vector ETV
attr interpolationmode none
attr source answer
attr title "requests answered, vector"
vector 80 Scenario.node[2].wlan[0].mac packetReceivedFromLower:vector(packetBytes) ETV
attr interpolationmode none
attr title "packets received from lower layer, vector(packetBytes)"
vector 81 Scenario.node[2].wlan[0].mac.dcf packetReceivedFromPeer:vector(packetBytes) ETV
attr interpolationmode none
attr title "packets received, vector(packetBytes)"
vector 82 Scenario.node[2].wlan[0].mac.dcf packetReceivedFromPeerMulticast:vector(packetBytes) ETV
attr interpolationmode none
attr source ieee80211Multicast(packetReceivedFromPeer)
attr title "packets received: multicast, vector(packetBytes)"
vector 83 Scenario.node[2].wlan[0].mac.dcf packetReceivedFromPeerWithoutRetry:vector(packetBytes) ETV
attr interpolationmode none
attr source ieee80211NotRetry(packetReceivedFromPeer)
attr title "packets received: without retry, vector(packetBytes)"
vector 84 Scenario.node[2].wlan[0].mac packetSentToUpper:vector(packetBytes) ETV
attr interpolationmode none
attr title "packets sent to upper layer, vector(packetBytes)"
vector 85 Scenario.node[2].udp packetReceived:vector(packetBytes) ETV
attr interpolationmode none
attr source packetReceived
attr title "packets received, vector(packetBytes)"
vector 86 Scenario.node[2].udp passedUpPk:vector(count) ETV
attr interpolationmode none
attr source packetSentToUpper
attr title "packets passed up, vector(count)"
vector 87 Scenario.node[2].cache requestsAnswered:vector ETV
attr interpolationmode none
attr source answer
attr title "requests answered, vector"
vector 88 Scenario.node[2].app[0] packetSent:vector(packetBytes) ETV
attr interpolationmode none
attr source packetSent
attr title "packets sent, vector(packetBytes)"
vector 89 Scenario.node[2].udp packetSent:vector(packetBytes) ETV
attr interpolationmode none
attr source packetSent
attr title "packets sent, vector(packetBytes)"
vector 90 Scenario.node[2].lo[0].lo rcvdPkFromHl:vector(packetBytes) ETV
attr interpolationmode none
attr source packetReceivedFromUpper
attr title "packets received from higher layer, vector(packetBytes)"
vector 91 Scenario.node[2].lo[0].lo passedUpPk:vector(packetBytes) ETV
attr interpolationmode none
attr source packetSentToUpper
attr title "packets passed to higher layer, vector(packetBytes)"
vector 92 Scenario.node[2].wlan[0].mac packetReceivedFromUpper:vector(packetBytes) ETV
attr interpolationmode none
attr title "packets received from upper layer, vector(packetBytes)"
vector 93 Scenario.node[2].wlan[0].mac.dcf.channelAccess.pendingQueue packetPushed:vector(packetBytes) ETV
attr interpolationmode none
attr title "packet pushed, vector(packetBytes)"
vector 94 Scenario.node[2].wlan[0].mac.dcf.channelAccess.pendingQueue queueLength:vector ETV
attr interpolationmode sample-hold
attr source "count(packetPushed) - count(packetPopped) - count(packetRemoved) - count(packetDropped)"
attr title "queue length, vector"
vector 95 Scenario.node[2].wlan[0].mac.dcf.channelAccess.contention backoffPeriodGenerated:vector ETV
attr interpolationmode none
attr title "backoff periods, vector"
vector 96 Scenario.node[2].wlan[0].mac.dcf.channelAccess.contention backoffActive:vector ETV
attr interpolationmode sample-hold
attr source count(backoffStarted)-count(backoffStopped)
attr title "backoff active, vector"
vector 97 Scenario.node[2].wlan[0].mac.dcf.channelAccess.pendingQueue packetPopped:vector(packetBytes) ETV
attr interpolationmode none
attr title "packet popped, vector(packetBytes)"
vector 98 Scenario.node[2].wlan[0].mac.dcf.channelAccess.pendingQueue queueingTime:vector ETV
attr interpolationmode none
attr source queueingTime(packetPopped)
attr title "queueing times, vector"
attr unit s
vector 99 Scenario.node[2].wlan[0].mac.dcf.channelAccess.inProgressFrames queueLength:vector ETV
attr interpolationmode sample-hold
attr source "count(packetEnqueued) - count(packetDequeued)"
attr title "queue length, vector"
vector 100 Scenario.node[2].wlan[0].mac.dcf datarateSelected:vector ETV
attr interpolationmode none
attr title "datarates selected, vector"
vector 101 Scenario.node[2].wlan[0].mac packetSentToLower:vector(packetBytes) ETV
attr interpolationmode none
attr title "packets sent to lower layer, vector(packetBytes)"
vector 102 Scenario.node[2].wlan[0].mac.dcf frameSequenceActive:vector ETV
attr interpolationmode sample-hold
attr source count(frameSequenceStarted)-count(frameSequenceFinished)
attr title "frame sequence active, vector"
vector 103 Scenario.node[2].wlan[0].radio transmissionState:vector ETV
attr interpolationmode sample-hold
attr source transmissionStateChanged
attr title "Radio transmission state, vector"
vector 104 Scenario.node[2].wlan[0].mac.dcf packetSentToPeer:vector(packetBytes) ETV
attr interpolationmode none
attr title "packets sent, vector(packetBytes)"
vector 105 Scenario.node[2].wlan[0].mac.dcf packetSentToPeerMulticast:vector(packetBytes) ETV
attr interpolationmode none
attr source ieee80211Multicast(packetSentToPeer)
attr title "packets sent: multicast, vector(packetBytes)"
vector 106 Scenario.node[2].wlan[0].mac.dcf packetSentToPeerWithoutRetry:vector(packetBytes) ETV
attr interpolationmode none
attr source ieee80211NotRetry(packetSentToPeer)
attr title "packets sent: without retry, vector(packetBytes)"
vector 107 Scenario.node[2].wlan[0].mac.dcf.channelAccess.inProgressFrames queueingTime:vector ETV
attr interpolationmode none
attr source queueingTime(packetDequeued)
attr title "queueing times, vector"
vector 108 Scenario.node[0].wlan[0].mac packetReceivedFromLower:vector(packetBytes) ETV
attr interpolationmode none
attr title "packets received from lower layer, vector(packetBytes)"
vector 109 Scenario.node[0].wlan[0].mac.dcf packetReceivedFromPeer:vector(packetBytes) ETV
attr interpolationmode none
attr title "packets received, vector(packetBytes)"
vector 110 Scenario.node[0].wlan[0].mac.dcf packetReceivedFromPeerMulticast:vector(packetBytes) ETV
attr interpolationmode none
attr source ieee80211Multicast(packetReceivedFromPeer)
attr title "packets received: multicast, vector(packetBytes)"
vector 111 Scenario.node[0].wlan[0].mac.dcf packetReceivedFromPeerWithoutRetry:vector(packetBytes) ETV
attr interpolationmode none
attr source ieee80211NotRetry(packetReceivedFromPeer)
attr title "packets received: without retry, vector(packetBytes)"
vector 112 Scenario.node[0].wlan[0].mac packetSentToUpper:vector(packetBytes) ETV
attr interpolationmode none
attr title "packets sent to upper layer, vector(packetBytes)"
vector 113 Scenario.node[4].wlan[0].radio radioMode:vector ETV
attr interpolationmode sample-hold
attr source radioModeChanged
attr title "Radio mode, vector"
vector 114 Scenario.node[4].wlan[0].radio radioChannel:vector ETV
attr interpolationmode sample-hold
attr source radioChannelChanged
attr title "Radio channel, vector"
vector 115 Scenario.node[4].wlan[0].radio receptionState:vector ETV
attr interpolationmode sample-hold
attr source receptionStateChanged
attr title "Radio reception state, vector"
vector 116 Scenario.node[4].wlan[0].mac.dcf.recoveryProcedure contentionWindowChanged:vector ETV
attr interpolationmode sample-hold
attr title "contention window, vector"
vector 117 Scenario.node[3].cache requestsReceived:vector ETV
attr interpolationmode none
attr source receive
attr title "requests received, vector"
vector 118 Scenario.node[3].cache hitRate:vector ETV
attr interpolationmode none
attr source hitRate
attr title "hit rate, vector"
vector 119 Scenario.node[3].dataServer requestsReceived:vector ETV
attr interpolationmode none
attr source receive
attr title "requests received, vector"
vector 120 Scenario.node[3].app[0] packetReceived:vector(packetBytes) ETV
attr interpolationmode none
attr source packetReceived
attr title "packets received, vector(packetBytes)"
vector 121 Scenario.node[3].app[0] throughput:vector ETV
attr source throughput(packetReceived)
attr title "throughput, vector"
attr unit bps
vector 122 Scenario.node[3].app[0] packetSent:vector(packetBytes) ETV
attr interpolationmode none
attr source packetSent
attr title "packets sent, vector(packetBytes)"
vector 123 Scenario.node[3].udp packetSent:vector(packetBytes) ETV
attr interpolationmode none
attr source packetSent
attr title "packets sent, vector(packetBytes)"
vector 124 Scenario.node[3].lo[0].lo rcvdPkFromHl:vector(packetBytes) ETV
attr interpolationmode none
attr source packetReceivedFromUpper
attr title "packets received from higher layer, vector(packetBytes)"
vector 125 Scenario.node[3].lo[0].lo passedUpPk:vector(packetBytes) ETV
attr interpolationmode none
attr source packetSentToUpper
attr title "packets passed to higher layer, vector(packetBytes)"
vector 126 Scenario.node[3].wlan[0].mac packetReceivedFromUpper:vector(packetBytes) ETV
attr interpolationmode none
attr title "packets received from upper layer, vector(packetBytes)"
vector 127 Scenario.node[3].wlan[0].mac.dcf.channelAccess.pendingQueue packetPushed:vector(packetBytes) ETV
attr interpolationmode none
attr title "packet pushed, vector(packetBytes)"
vector 128 Scenario.node[3].wlan[0].mac.dcf.channelAccess.pendingQueue queueLength:vector ETV
attr interpolationmode sample-hold
attr source "count(packetPushed) - count(packetPopped) - count(packetRemoved) - count(packetDropped)"
attr title "queue length, vector"
vector 129 Scenario.node[3].wlan[0].mac.dcf.channelAccess.contention backoffPeriodGenerated:vector ETV
attr interpolationmode none
attr title "backoff periods, vector"
vector 130 Scenario.node[3].wlan[0].mac.dcf.channelAccess.contention backoffActive:vector ETV
attr interpolationmode sample-hold
attr source count(backoffStarted)-count(backoffStopped)
attr title "backoff active, vector"
vector 131 Scenario.node[3].udp packetReceived:vector(packetBytes) ETV
attr interpolationmode none
attr source packetReceived
attr title "packets received, vector(packetBytes)"
vector 132 Scenario.node[3].udp passedUpPk:vector(count) ETV
attr interpolationmode none
attr source packetSentToUpper
attr title "packets passed up, vector(count)"
vector 133 Scenario.node[3].wlan[0].mac.dcf.channelAccess.pendingQueue packetPopped:vector(packetBytes) ETV
attr interpolationmode none
attr title "packet popped, vector(packetBytes)"
vector 134 Scenario.node[3].wlan[0].mac.dcf.channelAccess.pendingQueue queueingTime:vector ETV
attr interpolationmode none
attr source queueingTime(packetPopped)
attr title "queueing times, vector"
attr unit s
vector 135 Scenario.node[3].wlan[0].mac.dcf.channelAccess.inProgressFrames queueLength:vector ETV
attr interpolationmode sample-hold
attr source "count(packetEnqueued) - count(packetDequeued)"
attr title "queue length, vector"
vector 136 Scenario.node[3].wlan[0].mac.dcf datarateSelected:vector ETV
attr interpolationmode none
attr title "datarates selected, vector"
vector 137 Scenario.node[3].wlan[0].mac packetSentToLower:vector(packetBytes) ETV
attr interpolationmode none
attr title "packets sent to lower layer, vector(packetBytes)"
vector 138 Scenario.node[3].wlan[0].mac.dcf frameSequenceActive:vector ETV
attr interpolationmode sample-hold
attr source count(frameSequenceStarted)-count(frameSequenceFinished)
attr title "frame sequence active, vector"
vector 139 Scenario.node[3].wlan[0].radio transmissionState:vector ETV
attr interpolationmode sample-hold
attr source transmissionStateChanged
attr title "Radio transmission state, vector"
vector 140 Scenario.node[3].wlan[0].mac.dcf packetSentToPeer:vector(packetBytes) ETV
attr interpolationmode none
attr title "packets sent, vector(packetBytes)"
vector 141 Scenario.node[3].wlan[0].mac.dcf packetSentToPeerMulticast:vector(packetBytes) ETV
attr interpolationmode none
attr source ieee80211Multicast(packetSentToPeer)
attr title "packets sent: multicast, vector(packetBytes)"
vector 142 Scenario.node[3].wlan[0].mac.dcf packetSentToPeerWithoutRetry:vector(packetBytes) ETV
attr interpolationmode none
attr source ieee80211NotRetry(packetSentToPeer)
attr title "packets sent: without retry, vector(packetBytes)"
vector 143 Scenario.node[3].wlan[0].mac.dcf.channelAccess.inProgressFrames queueingTime:vector ETV
attr interpolationmode none
attr source queueingTime(packetDequeued)
attr title "queueing times, vector"
vector 144 Scenario.node[4].cache requestsReceived:vector ETV
attr interpolationmode none
attr source receive
attr title "requests received, vector"
vector 145 Scenario.node[4].cache hitRate:vector ETV
attr interpolationmode none
attr source hitRate
attr title "hit rate, vector"
vector 146 Scenario.node[4].dataServer requestsReceived:vector ETV
attr interpolationmode none
attr source receive
attr title "requests received, vector"
vector 147 Scenario.node[4].app[0] packetReceived:vector(packetBytes) ETV
attr interpolationmode none
attr source packetReceived
attr title "packets received, vector(packetBytes)"
vector 148 Scenario.node[4].app[0] throughput:vector ETV
attr source throughput(packetReceived)
attr title "throughput, vector"
attr unit bps
vector 149 Scenario.node[4].app[0] RequestReceiveTime:vector ETV
attr interpolationmode none
attr source receiveTime
attr title "request time, vector"
vector 150 Scenario.node[1].wlan[0].mac packetReceivedFromLower:vector(packetBytes) ETV
attr interpolationmode none
attr title "packets received from lower layer, vector(packetBytes)"
vector 151 Scenario.node[1].wlan[0].mac.dcf packetReceivedFromPeer:vector(packetBytes) ETV
attr interpolationmode none
attr title "packets received, vector(packetBytes)"
vector 152 Scenario.node[1].wlan[0].mac.dcf packetReceivedFromPeerMulticast:vector(packetBytes) ETV
attr interpolationmode none
attr source ieee80211Multicast(packetReceivedFromPeer)
attr title "packets received: multicast, vector(packetBytes)"
vector 153 Scenario.node[1].wlan[0].mac.dcf packetReceivedFromPeerWithoutRetry:vector(packetBytes) ETV
attr interpolationmode none
attr source ieee80211NotRetry(packetReceivedFromPeer)
attr title "packets received: without retry, vector(packetBytes)"
vector 154 Scenario.node[1].wlan[0].mac packetSentToUpper:vector(packetBytes) ETV
attr interpolationmode none
attr title "packets sent to upper layer, vector(packetBytes)"
vector 155 Scenario.node[3].wlan[0].mac packetReceivedFromLower:vector(packetBytes) ETV
attr interpolationmode none
attr title "packets received from lower layer, vector(packetBytes)"
vector 156 Scenario.node[3].wlan[0].mac.dcf packetReceivedFromPeer:vector(packetBytes) ETV
attr interpolationmode none
attr title "packets received, vector(packetBytes)"
vector 157 Scenario.node[3].wlan[0].mac.dcf packetReceivedFromPeerMulticast:vector(packetBytes) ETV
attr interpolationmode none
attr source ieee80211Multicast(packetReceivedFromPeer)
attr title "packets received: multicast, vector(packetBytes)"
vector 158 Scenario.node[3].wlan[0].mac.dcf packetReceivedFromPeerWithoutRetry:vector(packetBytes) ETV
attr interpolationmode none
attr source ieee80211NotRetry(packetReceivedFromPeer)
attr title "packets received: without retry, vector(packetBytes)"
vector 159 Scenario.node[3].wlan[0].mac packetSentToUpper:vector(packetBytes) ETV
attr interpolationmode none
attr title "packets sent to upper layer, vector(packetBytes)"
vector 160 Scenario.node[3].app[0] RequestReceiveTime:vector ETV
attr interpolationmode none
attr source receiveTime
attr title "request time, vector"
vector 161 Scenario.node[4].app[0] packetSent:vector(packetBytes) ETV
attr interpolationmode none
attr source packetSent
attr title "packets sent, vector(packetBytes)"
vector 162 Scenario.node[4].udp packetSent:vector(packetBytes) ETV
attr interpolationmode none
attr source packetSent
attr title "packets sent, vector(packetBytes)"
vector 163 Scenario.node[4].lo[0].lo rcvdPkFromHl:vector(packetBytes) ETV
attr interpolationmode none
attr source packetReceivedFromUpper
attr title "packets received from higher layer, vector(packetBytes)"
vector 164 Scenario.node[4].lo[0].lo passedUpPk:vector(packetBytes) ETV
attr interpolationmode none
attr source packetSentToUpper
attr title "packets passed to higher layer, vector(packetBytes)"
vector 165 Scenario.node[4].wlan[0].mac packetReceivedFromUpper:vector(packetBytes) ETV
attr interpolationmode none
attr title "packets received from upper layer, vector(packetBytes)"
vector 166 Scenario.node[4].wlan[0].mac.dcf.channelAccess.pendingQueue packetPushed:vector(packetBytes) ETV
attr interpolationmode none
attr title "packet pushed, vector(packetBytes)"
vector 167 Scenario.node[4].wlan[0].mac.dcf.channelAccess.pendingQueue queueLength:vector ETV
attr interpolationmode sample-hold
attr source "count(packetPushed) - count(packetPopped) - count(packetRemoved) - count(packetDropped)"
attr title "queue length, vector"
vector 168 Scenario.node[4].wlan[0].mac.dcf.channelAccess.contention backoffPeriodGenerated:vector ETV
attr interpolationmode none
attr title "backoff periods, vector"
vector 169 Scenario.node[4].wlan[0].mac.dcf.channelAccess.contention backoffActive:vector ETV
attr interpolationmode sample-hold
attr source count(backoffStarted)-count(backoffStopped)
attr title "backoff active, vector"
vector 170 Scenario.node[4].udp packetReceived:vector(packetBytes) ETV
attr interpolationmode none
attr source packetReceived
attr title "packets received, vector(packetBytes)"
vector 171 Scenario.node[4].udp passedUpPk:vector(count) ETV
attr interpolationmode none
attr source packetSentToUpper
attr title "packets passed up, vector(count)"
vector 172 Scenario.node[4].wlan[0].mac.dcf.channelAccess.pendingQueue packetPopped:vector(packetBytes) ETV
attr interpolationmode none
attr title "packet popped, vector(packetBytes)"
vector 173 Scenario.node[4].wlan[0].mac.dcf.channelAccess.pendingQueue queueingTime:vector ETV
attr interpolationmode none
attr source queueingTime(packetPopped)
attr title "queueing times, vector"
attr unit s
vector 174 Scenario.node[4].wlan[0].mac.dcf.channelAccess.inProgressFrames queueLength:vector ETV
attr interpolationmode sample-hold
attr source "count(packetEnqueued) - count(packetDequeued)"
attr title "queue length, vector"
vector 175 Scenario.node[4].wlan[0].mac.dcf datarateSelected:vector ETV
attr interpolationmode none
attr title "datarates selected, vector"
vector 176 Scenario.node[4].wlan[0].mac packetSentToLower:vector(packetBytes) ETV
attr interpolationmode none
attr title "packets sent to lower layer, vector(packetBytes)"
vector 177 Scenario.node[4].wlan[0].mac.dcf frameSequenceActive:vector ETV
attr interpolationmode sample-hold
attr source count(frameSequenceStarted)-count(frameSequenceFinished)
attr title "frame sequence active, vector"
vector 178 Scenario.node[4].wlan[0].radio transmissionState:vector ETV
attr interpolationmode sample-hold
attr source transmissionStateChanged
attr title "Radio transmission state, vector"
vector 179 Scenario.node[4].wlan[0].mac.dcf packetSentToPeer:vector(packetBytes) ETV
attr interpolationmode none
attr title "packets sent, vector(packetBytes)"
vector 180 Scenario.node[4].wlan[0].mac.dcf packetSentToPeerMulticast:vector(packetBytes) ETV
attr interpolationmode none
attr source ieee80211Multicast(packetSentToPeer)
attr title "packets sent: multicast, vector(packetBytes)"
vector 181 Scenario.node[4].wlan[0].mac.dcf packetSentToPeerWithoutRetry:vector(packetBytes) ETV
attr interpolationmode none
attr source ieee80211NotRetry(packetSentToPeer)
attr title "packets sent: without retry, vector(packetBytes)"
vector 182 Scenario.node[4].wlan[0].mac.dcf.channelAccess.inProgressFrames queueingTime:vector ETV
attr interpolationmode none
attr source queueingTime(packetDequeued)
attr title "queueing times, vector"
vector 183 Scenario.node[5].wlan[0].radio radioMode:vector ETV
attr interpolationmode sample-hold
attr source radioModeChanged
attr title "Radio mode, vector"
vector 184 Scenario.node[5].wlan[0].radio radioChannel:vector ETV
attr interpolationmode sample-hold
attr source radioChannelChanged
attr title "Radio channel, vector"
vector 185 Scenario.node[5].wlan[0].radio receptionState:vector ETV
attr interpolationmode sample-hold
attr source receptionStateChanged
attr title "Radio reception state, vector"
vector 186 Scenario.node[5].wlan[0].mac.dcf.recoveryProcedure contentionWindowChanged:vector ETV
attr interpolationmode sample-hold
attr title "contention window, vector"
vector 187 Scenario.node[6].wlan[0].radio radioMode:vector ETV
attr interpolationmode sample-hold
attr source radioModeChanged
attr title "Radio mode, vector"
vector 188 Scenario.node[6].wlan[0].radio radioChannel:vector ETV
attr interpolationmode sample-hold
attr source radioChannelChanged
attr title "Radio channel, vector"
vector 189 Scenario.node[6].wlan[0].radio receptionState:vector ETV
attr interpolationmode sample-hold
attr source receptionStateChanged
attr title "Radio reception state, vector"
vector 190 Scenario.node[6].wlan[0].mac.dcf.recoveryProcedure contentionWindowChanged:vector ETV
attr interpolationmode sample-hold
attr title "contention window, vector"
vector 191 Scenario.node[5].cache requestsReceived:vector ETV
attr interpolationmode none
attr source receive
attr title "requests received, vector"
vector 192 Scenario.node[5].cache hitRate:vector ETV
attr interpolationmode none
attr source hitRate
attr title "hit rate, vector"
vector 193 Scenario.node[5].dataServer requestsReceived:vector ETV
attr interpolationmode none
attr source receive
attr title "requests received, vector"
vector 194 Scenario.node[5].app[0] packetReceived:vector(packetBytes) ETV
attr interpolationmode none
attr source packetReceived
attr title "packets received, vector(packetBytes)"
vector 195 Scenario.node[5].app[0] throughput:vector ETV
attr source throughput(packetReceived)
attr title "throughput, vector"
attr unit bps
vector 196 Scenario.node[5].app[0] RequestReceiveTime:vector ETV
attr interpolationmode none
attr source receiveTime
attr title "request time, vector"
21	38847 123 119 890 10.134 50.152 6 540 540 3240 1749600
22	38970 123 119 890 10.134 50.152 6 540 540 3240 1749600
150	39093 58 675 849 43.188424565575 48.196424129358 2 570 570 1140 649800
34	39151 123 126 897 10.134 50.152 6 570 570 3420 1949400
23	39274 123 122 893 10.134 50.152 6 542 542 3252 1762584
154	39397 58 675 849 43.188424565575 48.196424129358 2 542 542 1084 587528
153	39455 58 675 849 43.188424565575 48.196424129358 2 570 570 1140 649800
152	39513 58 675 849 43.188424565575 48.196424129358 2 570 570 1140 649800
151	39571 58 675 849 43.188424565575 48.196424129358 2 570 570 1140 649800
39	39629 138 130 905 10.134424 50.152424 6 570 570 3420 1949400
38	39767 138 130 905 10.134424 50.152424 6 570 570 3420 1949400
37	39905 138 130 905 10.134424 50.152424 6 570 570 3420 1949400
35	40043 237 126 905 10.134 50.152424 12 0 1 6 6
33	40280 153 126 897 10.134 50.152 6 12000000 12000000 72000000 8.64e+014
31	40433 111 126 897 10.134 50.152 6 0 0 0 0
30	40544 123 126 897 10.134 50.152 6 570 570 3420 1949400
24	40667 123 122 893 10.134 50.152 6 570 570 3420 1949400
25	40790 222 122 897 10.134 50.152 12 0 1 6 6
40	41012 168 130 905 10.134424 50.152424 6 0.000424 0.000424 0.002544 1.078656e-006
32	41180 237 126 905 10.134 50.152424 12 0 1 6 6
27	41417 222 122 896 10.134 50.152 12 0 1 6 6
26	41639 112 122 893 10.134 50.152 6 3 14 45 415
9	41751 13 56 56 5.1 5.1 1 15 15 15 225
36	41764 474 127 906 10.134 50.152424 24 0 2 24 36
8	42238 337 56 906 5.1 50.152424 17 0 3 15 27
6	42575 261 56 906 5.1 50.152424 15 0 3 32 82
7	42836 12 56 56 5.1 5.1 1 3 3 3 9
28	42848 179 123 894 10.134 50.152 8 520 520 4160 2163200
20	43027 123 117 888 10.134 50.152 6 520 520 3120 1622400
29	43150 163 123 894 10.134 50.152 8 1 8 36 204
67	43313 130 282 1036 20.102 55.1 5 0 0.046999999999997 0.059000000000001 0.0023129999999998
18	43443 8312 116 1047 0.1 56.1 561 0 81920 737280 50331648000
17	51755 386 116 895 10.134 50.152 18 512 512 9216 4718592
19	52141 123 116 887 10.134 50.152 6 512 512 3072 1572864
15	52264 298 112 1036 10.1 55.1 12 0 0.16666667163372 0.90321069955826 0.12219886675371
79	52562 31 475 1036 35.1 55.1 2 1 2 3 5
14	52593 206 112 1036 10.1 55.1 12 1 12 78 650
16	52799 173 115 886 10.1 50.1 10 1 10 55 385
vector 197 Scenario.node[6].wlan[0].mac packetReceivedFromLower:vector(packetBytes) ETV
attr interpolationmode none
attr title "packets received from lower layer, vector(packetBytes)"
vector 198 Scenario.node[6].wlan[0].mac.dcf packetReceivedFromPeer:vector(packetBytes) ETV
attr interpolationmode none
attr title "packets received, vector(packetBytes)"
vector 199 Scenario.node[6].wlan[0].mac.dcf packetReceivedFromPeerMulticast:vector(packetBytes) ETV
attr interpolationmode none
attr source ieee80211Multicast(packetReceivedFromPeer)
attr title "packets received: multicast, vector(packetBytes)"
vector 200 Scenario.node[6].wlan[0].mac.dcf packetReceivedFromPeerWithoutRetry:vector(packetBytes) ETV
attr interpolationmode none
attr source ieee80211NotRetry(packetReceivedFromPeer)
attr title "packets received: without retry, vector(packetBytes)"
vector 201 Scenario.node[6].wlan[0].mac packetSentToUpper:vector(packetBytes) ETV
attr interpolationmode none
attr title "packets sent to upper layer, vector(packetBytes)"
vector 202 Scenario.node[6].udp packetReceived:vector(packetBytes) ETV
attr interpolationmode none
attr source packetReceived
attr title "packets received, vector(packetBytes)"
vector 203 Scenario.node[6].udp passedUpPk:vector(count) ETV
attr interpolationmode none
attr source packetSentToUpper
attr title "packets passed up, vector(count)"
vector 204 Scenario.node[6].app[0] packetReceived:vector(packetBytes) ETV
attr interpolationmode none
attr source packetReceived
attr title "packets received, vector(packetBytes)"
vector 205 Scenario.node[6].app[0] throughput:vector ETV
attr source throughput(packetReceived)
attr title "throughput, vector"
attr unit bps
vector 206 Scenario.node[6].cache requestsReceived:vector ETV
attr interpolationmode none
attr source receive
attr title "requests received, vector"
vector 207 Scenario.node[6].cache hitRate:vector ETV
attr interpolationmode none
attr source hitRate
attr title "hit rate, vector"
vector 208 Scenario.node[6].dataServer requestsReceived:vector ETV
attr interpolationmode none
attr source receive
attr title "requests received, vector"
vector 209 Scenario.node[6].app[0] packetSent:vector(packetBytes) ETV
attr interpolationmode none
attr source packetSent
attr title "packets sent, vector(packetBytes)"
vector 210 Scenario.node[6].udp packetSent:vector(packetBytes) ETV
attr interpolationmode none
attr source packetSent
attr title "packets sent, vector(packetBytes)"
vector 211 Scenario.node[6].lo[0].lo rcvdPkFromHl:vector(packetBytes) ETV
attr interpolationmode none
attr source packetReceivedFromUpper
attr title "packets received from higher layer, vector(packetBytes)"
vector 212 Scenario.node[6].lo[0].lo passedUpPk:vector(packetBytes) ETV
attr interpolationmode none
attr source packetSentToUpper
attr title "packets passed to higher layer, vector(packetBytes)"
vector 213 Scenario.node[6].wlan[0].mac packetReceivedFromUpper:vector(packetBytes) ETV
attr interpolationmode none
attr title "packets received from upper layer, vector(packetBytes)"
vector 214 Scenario.node[6].wlan[0].mac.dcf.channelAccess.pendingQueue packetPushed:vector(packetBytes) ETV
attr interpolationmode none
attr title "packet pushed, vector(packetBytes)"
vector 215 Scenario.node[6].wlan[0].mac.dcf.channelAccess.pendingQueue queueLength:vector ETV
attr interpolationmode sample-hold
attr source "count(packetPushed) - count(packetPopped) - count(packetRemoved) - count(packetDropped)"
attr title "queue length, vector"
vector 216 Scenario.node[6].wlan[0].mac.dcf.channelAccess.contention backoffPeriodGenerated:vector ETV
attr interpolationmode none
attr title "backoff periods, vector"
vector 217 Scenario.node[6].wlan[0].mac.dcf.channelAccess.contention backoffActive:vector ETV
attr interpolationmode sample-hold
attr source count(backoffStarted)-count(backoffStopped)
attr title "backoff active, vector"
vector 218 Scenario.node[6].wlan[0].mac.dcf.channelAccess.pendingQueue packetPopped:vector(packetBytes) ETV
attr interpolationmode none
attr title "packet popped, vector(packetBytes)"
vector 219 Scenario.node[6].wlan[0].mac.dcf.channelAccess.pendingQueue queueingTime:vector ETV
attr interpolationmode none
attr source queueingTime(packetPopped)
attr title "queueing times, vector"
attr unit s
vector 220 Scenario.node[6].wlan[0].mac.dcf.channelAccess.inProgressFrames queueLength:vector ETV
attr interpolationmode sample-hold
attr source "count(packetEnqueued) - count(packetDequeued)"
attr title "queue length, vector"
vector 221 Scenario.node[6].wlan[0].mac.dcf datarateSelected:vector ETV
attr interpolationmode none
attr title "datarates selected, vector"
vector 222 Scenario.node[6].wlan[0].mac packetSentToLower:vector(packetBytes) ETV
attr interpolationmode none
attr title "packets sent to lower layer, vector(packetBytes)"
vector 223 Scenario.node[6].wlan[0].mac.dcf frameSequenceActive:vector ETV
attr interpolationmode sample-hold
attr source count(frameSequenceStarted)-count(frameSequenceFinished)
attr title "frame sequence active, vector"
vector 224 Scenario.node[6].wlan[0].radio transmissionState:vector ETV
attr interpolationmode sample-hold
attr source transmissionStateChanged
attr title "Radio transmission state, vector"
vector 225 Scenario.node[6].wlan[0].mac.dcf packetSentToPeer:vector(packetBytes) ETV
attr interpolationmode none
attr title "packets sent, vector(packetBytes)"
vector 226 Scenario.node[6].wlan[0].mac.dcf packetSentToPeerMulticast:vector(packetBytes) ETV
attr interpolationmode none
attr source ieee80211Multicast(packetSentToPeer)
attr title "packets sent: multicast, vector(packetBytes)"
vector 227 Scenario.node[6].wlan[0].mac.dcf packetSentToPeerWithoutRetry:vector(packetBytes) ETV
attr interpolationmode none
attr source ieee80211NotRetry(packetSentToPeer)
attr title "packets sent: without retry, vector(packetBytes)"
vector 228 Scenario.node[6].wlan[0].mac.dcf.channelAccess.inProgressFrames queueingTime:vector ETV
attr interpolationmode none
attr source queueingTime(packetDequeued)
attr title "queueing times, vector"
vector 229 Scenario.node[6].app[0] RequestReceiveTime:vector ETV
attr interpolationmode none
attr source receiveTime
attr title "request time, vector"
vector 230 Scenario.node[5].app[0] packetSent:vector(packetBytes) ETV
attr interpolationmode none
attr source packetSent
attr title "packets sent, vector(packetBytes)"
vector 231 Scenario.node[5].udp packetSent:vector(packetBytes) ETV
attr interpolationmode none
attr source packetSent
attr title "packets sent, vector(packetBytes)"
vector 232 Scenario.node[5].lo[0].lo rcvdPkFromHl:vector(packetBytes) ETV
attr interpolationmode none
attr source packetReceivedFromUpper
attr title "packets received from higher layer, vector(packetBytes)"
vector 233 Scenario.node[5].lo[0].lo passedUpPk:vector(packetBytes) ETV
attr interpolationmode none
attr source packetSentToUpper
attr title "packets passed to higher layer, vector(packetBytes)"
vector 234 Scenario.node[5].wlan[0].mac packetReceivedFromUpper:vector(packetBytes) ETV
attr interpolationmode none
attr title "packets received from upper layer, vector(packetBytes)"
vector 235 Scenario.node[5].wlan[0].mac.dcf.channelAccess.pendingQueue packetPushed:vector(packetBytes) ETV
attr interpolationmode none
attr title "packet pushed, vector(packetBytes)"
vector 236 Scenario.node[5].wlan[0].mac.dcf.channelAccess.pendingQueue queueLength:vector ETV
attr interpolationmode sample-hold
attr source "count(packetPushed) - count(packetPopped) - count(packetRemoved) - count(packetDropped)"
attr title "queue length, vector"
vector 237 Scenario.node[5].wlan[0].mac.dcf.channelAccess.contention backoffPeriodGenerated:vector ETV
attr interpolationmode none
attr title "backoff periods, vector"
vector 238 Scenario.node[5].wlan[0].mac.dcf.channelAccess.contention backoffActive:vector ETV
attr interpolationmode sample-hold
attr source count(backoffStarted)-count(backoffStopped)
attr title "backoff active, vector"
vector 239 Scenario.node[5].udp packetReceived:vector(packetBytes) ETV
attr interpolationmode none
attr source packetReceived
attr title "packets received, vector(packetBytes)"
vector 240 Scenario.node[5].udp passedUpPk:vector(count) ETV
attr interpolationmode none
attr source packetSentToUpper
attr title "packets passed up, vector(count)"
vector 241 Scenario.node[5].wlan[0].mac.dcf.channelAccess.pendingQueue packetPopped:vector(packetBytes) ETV
attr interpolationmode none
attr title "packet popped, vector(packetBytes)"
vector 242 Scenario.node[5].wlan[0].mac.dcf.channelAccess.pendingQueue queueingTime:vector ETV
attr interpolationmode none
attr source queueingTime(packetPopped)
attr title "queueing times, vector"
attr unit s
vector 243 Scenario.node[5].wlan[0].mac.dcf.channelAccess.inProgressFrames queueLength:vector ETV
attr interpolationmode sample-hold
attr source "count(packetEnqueued) - count(packetDequeued)"
attr title "queue length, vector"
vector 244 Scenario.node[5].wlan[0].mac.dcf datarateSelected:vector ETV
attr interpolationmode none
attr title "datarates selected, vector"
vector 245 Scenario.node[5].wlan[0].mac packetSentToLower:vector(packetBytes) ETV
attr interpolationmode none
attr title "packets sent to lower layer, vector(packetBytes)"
vector 246 Scenario.node[5].wlan[0].mac.dcf frameSequenceActive:vector ETV
attr interpolationmode sample-hold
attr source count(frameSequenceStarted)-count(frameSequenceFinished)
attr title "frame sequence active, vector"
vector 247 Scenario.node[5].wlan[0].radio transmissionState:vector ETV
attr interpolationmode sample-hold
attr source transmissionStateChanged
attr title "Radio transmission state, vector"
vector 248 Scenario.node[5].wlan[0].mac.dcf packetSentToPeer:vector(packetBytes) ETV
attr interpolationmode none
attr title "packets sent, vector(packetBytes)"
vector 249 Scenario.node[5].wlan[0].mac.dcf packetSentToPeerMulticast:vector(packetBytes) ETV
attr interpolationmode none
attr source ieee80211Multicast(packetSentToPeer)
attr title "packets sent: multicast, vector(packetBytes)"
vector 250 Scenario.node[5].wlan[0].mac.dcf packetSentToPeerWithoutRetry:vector(packetBytes) ETV
attr interpolationmode none
attr source ieee80211NotRetry(packetSentToPeer)
attr title "packets sent: without retry, vector(packetBytes)"
vector 251 Scenario.node[5].wlan[0].mac.dcf.channelAccess.inProgressFrames queueingTime:vector ETV
attr interpolationmode none
attr source queueingTime(packetDequeued)
attr title "queueing times, vector"
vector 252 Scenario.node[7].wlan[0].radio radioMode:vector ETV
attr interpolationmode sample-hold
attr source radioModeChanged
attr title "Radio mode, vector"
vector 253 Scenario.node[7].wlan[0].radio radioChannel:vector ETV
attr interpolationmode sample-hold
attr source radioChannelChanged
attr title "Radio channel, vector"
vector 254 Scenario.node[7].wlan[0].radio receptionState:vector ETV
attr interpolationmode sample-hold
attr source receptionStateChanged
attr title "Radio reception state, vector"
vector 255 Scenario.node[7].wlan[0].mac.dcf.recoveryProcedure contentionWindowChanged:vector ETV
attr interpolationmode sample-hold
attr title "contention window, vector"
vector 256 Scenario.node[3].wlan[0].mac packetDrop:vector(packetBytes) ETV
attr interpolationmode none
attr source packetDropped
attr title "packet drops, vector(packetBytes)"
vector 257 Scenario.node[3].wlan[0].mac packetDropIncorrectlyReceived:vector(packetBytes) ETV
attr interpolationmode none
attr source packetDropReasonIsIncorrectlyReceived(packetDropped)
attr title "packet drops: incorrectly received, vector(packetBytes)"
vector 258 Scenario.node[6].wlan[0].mac packetDrop:vector(packetBytes) ETV
attr interpolationmode none
attr source packetDropped
attr title "packet drops, vector(packetBytes)"
vector 259 Scenario.node[6].wlan[0].mac packetDropIncorrectlyReceived:vector(packetBytes) ETV
attr interpolationmode none
attr source packetDropReasonIsIncorrectlyReceived(packetDropped)
attr title "packet drops: incorrectly received, vector(packetBytes)"
vector 260 Scenario.node[3].cache requestsAnswered:vector ETV
attr interpolationmode none
attr source answer
attr title "requests answered, vector"
vector 261 Scenario.node[7].cache requestsReceived:vector ETV
attr interpolationmode none
attr source receive
attr title "requests received, vector"
vector 262 Scenario.node[7].cache hitRate:vector ETV
attr interpolationmode none
attr source hitRate
attr title "hit rate, vector"
vector 263 Scenario.node[7].dataServer requestsReceived:vector ETV
attr interpolationmode none
attr source receive
attr title "requests received, vector"
vector 264 Scenario.node[7].app[0] packetReceived:vector(packetBytes) ETV
attr interpolationmode none
attr source packetReceived
attr title "packets received, vector(packetBytes)"
vector 265 Scenario.node[7].app[0] throughput:vector ETV
attr source throughput(packetReceived)
attr title "throughput, vector"
attr unit bps
vector 266 Scenario.node[7].app[0] RequestReceiveTime:vector ETV
attr interpolationmode none
attr source receiveTime
attr title "request time, vector"
vector 267 Scenario.node[4].wlan[0].mac packetReceivedFromLower:vector(packetBytes) ETV
attr interpolationmode none
attr title "packets received from lower layer, vector(packetBytes)"
vector 268 Scenario.node[4].wlan[0].mac.dcf packetReceivedFromPeer:vector(packetBytes) ETV
attr interpolationmode none
attr title "packets received, vector(packetBytes)"
vector 269 Scenario.node[4].wlan[0].mac.dcf packetReceivedFromPeerMulticast:vector(packetBytes) ETV
attr interpolationmode none
attr source ieee80211Multicast(packetReceivedFromPeer)
attr title "packets received: multicast, vector(packetBytes)"
vector 270 Scenario.node[4].wlan[0].mac.dcf packetReceivedFromPeerWithoutRetry:vector(packetBytes) ETV
attr interpolationmode none
attr source ieee80211NotRetry(packetReceivedFromPeer)
attr title "packets received: without retry, vector(packetBytes)"
vector 271 Scenario.node[4].wlan[0].mac packetSentToUpper:vector(packetBytes) ETV
attr interpolationmode none
attr title "packets sent to upper layer, vector(packetBytes)"
vector 272 Scenario.node[8].wlan[0].radio radioMode:vector ETV
attr interpolationmode sample-hold
attr source radioModeChanged
attr title "Radio mode, vector"
vector 273 Scenario.node[8].wlan[0].radio radioChannel:vector ETV
attr interpolationmode sample-hold
attr source radioChannelChanged
attr title "Radio channel, vector"
vector 274 Scenario.node[8].wlan[0].radio receptionState:vector ETV
attr interpolationmode sample-hold
attr source receptionStateChanged
attr title "Radio reception state, vector"
vector 275 Scenario.node[8].wlan[0].mac.dcf.recoveryProcedure contentionWindowChanged:vector ETV
attr interpolationmode sample-hold
attr title "contention window, vector"
vector 276 Scenario.node[7].cache requestsAnswered:vector ETV
attr interpolationmode none
attr source answer
attr title "requests answered, vector"
vector 277 Scenario.node[8].wlan[0].mac packetReceivedFromLower:vector(packetBytes) ETV
attr interpolationmode none
attr title "packets received from lower layer, vector(packetBytes)"
vector 278 Scenario.node[8].wlan[0].mac.dcf packetReceivedFromPeer:vector(packetBytes) ETV
attr interpolationmode none
attr title "packets received, vector(packetBytes)"
vector 279 Scenario.node[8].wlan[0].mac.dcf packetReceivedFromPeerMulticast:vector(packetBytes) ETV
attr interpolationmode none
attr source ieee80211Multicast(packetReceivedFromPeer)
attr title "packets received: multicast, vector(packetBytes)"
vector 280 Scenario.node[8].wlan[0].mac.dcf packetReceivedFromPeerWithoutRetry:vector(packetBytes) ETV
attr interpolationmode none
attr source ieee80211NotRetry(packetReceivedFromPeer)
attr title "packets received: without retry, vector(packetBytes)"
vector 281 Scenario.node[8].wlan[0].mac packetSentToUpper:vector(packetBytes) ETV
attr interpolationmode none
attr title "packets sent to upper layer, vector(packetBytes)"
vector 282 Scenario.node[8].udp packetReceived:vector(packetBytes) ETV
attr interpolationmode none
attr source packetReceived
attr title "packets received, vector(packetBytes)"
vector 283 Scenario.node[8].udp passedUpPk:vector(count) ETV
attr interpolationmode none
attr source packetSentToUpper
attr title "packets passed up, vector(count)"
vector 284 Scenario.node[8].app[0] packetReceived:vector(packetBytes) ETV
attr interpolationmode none
attr source packetReceived
attr title "packets received, vector(packetBytes)"
vector 285 Scenario.node[8].app[0] throughput:vector ETV
attr source throughput(packetReceived)
attr title "throughput, vector"
attr unit bps
vector 286 Scenario.node[8].cache requestsReceived:vector ETV
attr interpolationmode none
attr source receive
attr title "requests received, vector"
vector 287 Scenario.node[8].cache hitRate:vector ETV
attr interpolationmode none
attr source hitRate
attr title "hit rate, vector"
vector 288 Scenario.node[8].dataServer requestsReceived:vector ETV
attr interpolationmode none
attr source receive
attr title "requests received, vector"
vector 289 Scenario.node[8].app[0] packetSent:vector(packetBytes) ETV
attr interpolationmode none
attr source packetSent
attr title "packets sent, vector(packetBytes)"
vector 290 Scenario.node[8].udp packetSent:vector(packetBytes) ETV
attr interpolationmode none
attr source packetSent
attr title "packets sent, vector(packetBytes)"
vector 291 Scenario.node[8].lo[0].lo rcvdPkFromHl:vector(packetBytes) ETV
attr interpolationmode none
attr source packetReceivedFromUpper
attr title "packets received from higher layer, vector(packetBytes)"
vector 292 Scenario.node[8].lo[0].lo passedUpPk:vector(packetBytes) ETV
attr interpolationmode none
attr source packetSentToUpper
attr title "packets passed to higher layer, vector(packetBytes)"
vector 293 Scenario.node[8].wlan[0].mac packetReceivedFromUpper:vector(packetBytes) ETV
attr interpolationmode none
attr title "packets received from upper layer, vector(packetBytes)"
vector 294 Scenario.node[8].wlan[0].mac.dcf.channelAccess.pendingQueue packetPushed:vector(packetBytes) ETV
attr interpolationmode none
attr title "packet pushed, vector(packetBytes)"
vector 295 Scenario.node[8].wlan[0].mac.dcf.channelAccess.pendingQueue queueLength:vector ETV
attr interpolationmode sample-hold
attr source "count(packetPushed) - count(packetPopped) - count(packetRemoved) - count(packetDropped)"
attr title "queue length, vector"
vector 296 Scenario.node[8].wlan[0].mac.dcf.channelAccess.contention backoffPeriodGenerated:vector ETV
attr interpolationmode none
attr title "backoff periods, vector"
vector 297 Scenario.node[8].wlan[0].mac.dcf.channelAccess.contention backoffActive:vector ETV
attr interpolationmode sample-hold
attr source count(backoffStarted)-count(backoffStopped)
attr title "backoff active, vector"
vector 298 Scenario.node[8].wlan[0].mac.dcf.channelAccess.pendingQueue packetPopped:vector(packetBytes) ETV
attr interpolationmode none
attr title "packet popped, vector(packetBytes)"
vector 299 Scenario.node[8].wlan[0].mac.dcf.channelAccess.pendingQueue queueingTime:vector ETV
attr interpolationmode none
attr source queueingTime(packetPopped)
attr title "queueing times, vector"
attr unit s
vector 300 Scenario.node[8].wlan[0].mac.dcf.channelAccess.inProgressFrames queueLength:vector ETV
attr interpolationmode sample-hold
attr source "count(packetEnqueued) - count(packetDequeued)"
attr title "queue length, vector"
vector 301 Scenario.node[8].wlan[0].mac.dcf datarateSelected:vector ETV
attr interpolationmode none
attr title "datarates selected, vector"
vector 302 Scenario.node[8].wlan[0].mac packetSentToLower:vector(packetBytes) ETV
attr interpolationmode none
attr title "packets sent to lower layer, vector(packetBytes)"
vector 303 Scenario.node[8].wlan[0].mac.dcf frameSequenceActive:vector ETV
attr interpolationmode sample-hold
attr source count(frameSequenceStarted)-count(frameSequenceFinished)
attr title "frame sequence active, vector"
vector 304 Scenario.node[8].wlan[0].radio transmissionState:vector ETV
attr interpolationmode sample-hold
attr source transmissionStateChanged
attr title "Radio transmission state, vector"
vector 305 Scenario.node[8].wlan[0].mac.dcf packetSentToPeer:vector(packetBytes) ETV
attr interpolationmode none
attr title "packets sent, vector(packetBytes)"
vector 306 Scenario.node[8].wlan[0].mac.dcf packetSentToPeerMulticast:vector(packetBytes) ETV
attr interpolationmode none
attr source ieee80211Multicast(packetSentToPeer)
attr title "packets sent: multicast, vector(packetBytes)"
vector 307 Scenario.node[8].wlan[0].mac.dcf packetSentToPeerWithoutRetry:vector(packetBytes) ETV
attr interpolationmode none
attr source ieee80211NotRetry(packetSentToPeer)
attr title "packets sent: without retry, vector(packetBytes)"
vector 308 Scenario.node[8].wlan[0].mac.dcf.channelAccess.inProgressFrames queueingTime:vector ETV
attr interpolationmode none
attr source queueingTime(packetDequeued)
attr title "queueing times, vector"
vector 309 Scenario.node[9].wlan[0].radio radioMode:vector ETV
attr interpolationmode sample-hold
attr source radioModeChanged
attr title "Radio mode, vector"
vector 310 Scenario.node[9].wlan[0].radio radioChannel:vector ETV
attr interpolationmode sample-hold
attr source radioChannelChanged
attr title "Radio channel, vector"
vector 311 Scenario.node[9].wlan[0].radio receptionState:vector ETV
attr interpolationmode sample-hold
attr source receptionStateChanged
attr title "Radio reception state, vector"
vector 312 Scenario.node[9].wlan[0].mac.dcf.recoveryProcedure contentionWindowChanged:vector ETV
attr interpolationmode sample-hold
attr title "contention window, vector"
vector 313 Scenario.node[5].wlan[0].mac packetReceivedFromLower:vector(packetBytes) ETV
attr interpolationmode none
attr title "packets received from lower layer, vector(packetBytes)"
vector 314 Scenario.node[5].wlan[0].mac.dcf packetReceivedFromPeer:vector(packetBytes) ETV
attr interpolationmode none
attr title "packets received, vector(packetBytes)"
vector 315 Scenario.node[5].wlan[0].mac.dcf packetReceivedFromPeerMulticast:vector(packetBytes) ETV
attr interpolationmode none
attr source ieee80211Multicast(packetReceivedFromPeer)
attr title "packets received: multicast, vector(packetBytes)"
vector 316 Scenario.node[5].wlan[0].mac.dcf packetReceivedFromPeerWithoutRetry:vector(packetBytes) ETV
attr interpolationmode none
attr source ieee80211NotRetry(packetReceivedFromPeer)
attr title "packets received: without retry, vector(packetBytes)"
vector 317 Scenario.node[5].wlan[0].mac packetSentToUpper:vector(packetBytes) ETV
attr interpolationmode none
attr title "packets sent to upper layer, vector(packetBytes)"
vector 318 Scenario.node[9].wlan[0].mac packetReceivedFromLower:vector(packetBytes) ETV
attr interpolationmode none
attr title "packets received from lower layer, vector(packetBytes)"
vector 319 Scenario.node[9].wlan[0].mac.dcf packetReceivedFromPeer:vector(packetBytes) ETV
attr interpolationmode none
attr title "packets received, vector(packetBytes)"
vector 320 Scenario.node[9].wlan[0].mac.dcf packetReceivedFromPeerMulticast:vector(packetBytes) ETV
attr interpolationmode none
attr source ieee80211Multicast(packetReceivedFromPeer)
attr title "packets received: multicast, vector(packetBytes)"
vector 321 Scenario.node[9].wlan[0].mac.dcf packetReceivedFromPeerWithoutRetry:vector(packetBytes) ETV
attr interpolationmode none
attr source ieee80211NotRetry(packetReceivedFromPeer)
attr title "packets received: without retry, vector(packetBytes)"
vector 322 Scenario.node[9].wlan[0].mac packetSentToUpper:vector(packetBytes) ETV
attr interpolationmode none
attr title "packets sent to upper layer, vector(packetBytes)"
vector 323 Scenario.node[9].udp packetReceived:vector(packetBytes) ETV
attr interpolationmode none
attr source packetReceived
attr title "packets received, vector(packetBytes)"
vector 324 Scenario.node[9].udp passedUpPk:vector(count) ETV
attr interpolationmode none
attr source packetSentToUpper
attr title "packets passed up, vector(count)"
vector 325 Scenario.node[9].app[0] packetReceived:vector(packetBytes) ETV
attr interpolationmode none
attr source packetReceived
attr title "packets received, vector(packetBytes)"
vector 326 Scenario.node[9].app[0] throughput:vector ETV
attr source throughput(packetReceived)
attr title "throughput, vector"
attr unit bps
vector 327 Scenario.node[9].cache requestsReceived:vector ETV
attr interpolationmode none
attr source receive
attr title "requests received, vector"
vector 328 Scenario.node[9].cache hitRate:vector ETV
attr interpolationmode none
attr source hitRate
attr title "hit rate, vector"
vector 329 Scenario.node[9].dataServer requestsReceived:vector ETV
attr interpolationmode none
attr source receive
attr title "requests received, vector"
vector 330 Scenario.node[9].app[0] packetSent:vector(packetBytes) ETV
attr interpolationmode none
attr source packetSent
attr title "packets sent, vector(packetBytes)"
vector 331 Scenario.node[9].udp packetSent:vector(packetBytes) ETV
attr interpolationmode none
attr source packetSent
attr title "packets sent, vector(packetBytes)"
vector 332 Scenario.node[9].lo[0].lo rcvdPkFromHl:vector(packetBytes) ETV
attr interpolationmode none
attr source packetReceivedFromUpper
attr title "packets received from higher layer, vector(packetBytes)"
vector 333 Scenario.node[9].lo[0].lo passedUpPk:vector(packetBytes) ETV
attr interpolationmode none
attr source packetSentToUpper
attr title "packets passed to higher layer, vector(packetBytes)"
vector 334 Scenario.node[9].wlan[0].mac packetReceivedFromUpper:vector(packetBytes) ETV
attr interpolationmode none
attr title "packets received from upper layer, vector(packetBytes)"
vector 335 Scenario.node[9].wlan[0].mac.dcf.channelAccess.pendingQueue packetPushed:vector(packetBytes) ETV
attr interpolationmode none
attr title "packet pushed, vector(packetBytes)"
vector 336 Scenario.node[9].wlan[0].mac.dcf.channelAccess.pendingQueue queueLength:vector ETV
attr interpolationmode sample-hold
attr source "count(packetPushed) - count(packetPopped) - count(packetRemoved) - count(packetDropped)"
attr title "queue length, vector"
vector 337 Scenario.node[9].wlan[0].mac.dcf.channelAccess.contention backoffPeriodGenerated:vector ETV
attr interpolationmode none
attr title "backoff periods, vector"
vector 338 Scenario.node[9].wlan[0].mac.dcf.channelAccess.contention backoffActive:vector ETV
attr interpolationmode sample-hold
attr source count(backoffStarted)-count(backoffStopped)
attr title "backoff active, vector"
vector 339 Scenario.node[9].wlan[0].mac.dcf.channelAccess.pendingQueue packetPopped:vector(packetBytes) ETV
attr interpolationmode none
attr title "packet popped, vector(packetBytes)"
vector 340 Scenario.node[9].wlan[0].mac.dcf.channelAccess.pendingQueue queueingTime:vector ETV
attr interpolationmode none
attr source queueingTime(packetPopped)
attr title "queueing times, vector"
attr unit s
vector 341 Scenario.node[9].wlan[0].mac.dcf.channelAccess.inProgressFrames queueLength:vector ETV
attr interpolationmode sample-hold
attr source "count(packetEnqueued) - count(packetDequeued)"
attr title "queue length, vector"
vector 342 Scenario.node[9].wlan[0].mac.dcf datarateSelected:vector ETV
attr interpolationmode none
attr title "datarates selected, vector"
vector 343 Scenario.node[9].wlan[0].mac packetSentToLower:vector(packetBytes) ETV
attr interpolationmode none
attr title "packets sent to lower layer, vector(packetBytes)"
vector 344 Scenario.node[9].wlan[0].mac.dcf frameSequenceActive:vector ETV
attr interpolationmode sample-hold
attr source count(frameSequenceStarted)-count(frameSequenceFinished)
attr title "frame sequence active, vector"
vector 345 Scenario.node[9].wlan[0].radio transmissionState:vector ETV
attr interpolationmode sample-hold
attr source transmissionStateChanged
attr title "Radio transmission state, vector"
vector 346 Scenario.node[9].wlan[0].mac.dcf packetSentToPeer:vector(packetBytes) ETV
attr interpolationmode none
attr title "packets sent, vector(packetBytes)"
vector 347 Scenario.node[9].wlan[0].mac.dcf packetSentToPeerMulticast:vector(packetBytes) ETV
attr interpolationmode none
attr source ieee80211Multicast(packetSentToPeer)
attr title "packets sent: multicast, vector(packetBytes)"
vector 348 Scenario.node[9].wlan[0].mac.dcf packetSentToPeerWithoutRetry:vector(packetBytes) ETV
attr interpolationmode none
attr source ieee80211NotRetry(packetSentToPeer)
attr title "packets sent: without retry, vector(packetBytes)"
vector 349 Scenario.node[9].wlan[0].mac.dcf.channelAccess.inProgressFrames queueingTime:vector ETV
attr interpolationmode none
attr source queueingTime(packetDequeued)
attr title "queueing times, vector"
vector 350 Scenario.node[8].app[0] RequestReceiveTime:vector ETV
attr interpolationmode none
attr source receiveTime
attr title "request time, vector"
vector 351 Scenario.node[4].cache requestsAnswered:vector ETV
attr interpolationmode none
attr source answer
attr title "requests answered, vector"
vector 352 Scenario.node[10].wlan[0].radio radioMode:vector ETV
attr interpolationmode sample-hold
attr source radioModeChanged
attr title "Radio mode, vector"
vector 353 Scenario.node[10].wlan[0].radio radioChannel:vector ETV
attr interpolationmode sample-hold
attr source radioChannelChanged
attr title "Radio channel, vector"
vector 354 Scenario.node[10].wlan[0].radio receptionState:vector ETV
attr interpolationmode sample-hold
attr source receptionStateChanged
attr title "Radio reception state, vector"
vector 355 Scenario.node[10].wlan[0].mac.dcf.recoveryProcedure contentionWindowChanged:vector ETV
attr interpolationmode sample-hold
attr title "contention window, vector"
vector 356 Scenario.node[9].cache requestsAnswered:vector ETV
attr interpolationmode none
attr source answer
attr title "requests answered, vector"
vector 357 Scenario.node[9].app[0] RequestReceiveTime:vector ETV
attr interpolationmode none
attr source receiveTime
attr title "request time, vector"
vector 358 Scenario.node[10].wlan[0].mac packetReceivedFromLower:vector(packetBytes) ETV
attr interpolationmode none
attr title "packets received from lower layer, vector(packetBytes)"
vector 359 Scenario.node[10].wlan[0].mac.dcf packetReceivedFromPeer:vector(packetBytes) ETV
attr interpolationmode none
attr title "packets received, vector(packetBytes)"
vector 360 Scenario.node[10].wlan[0].mac.dcf packetReceivedFromPeerMulticast:vector(packetBytes) ETV
attr interpolationmode none
attr source ieee80211Multicast(packetReceivedFromPeer)
attr title "packets received: multicast, vector(packetBytes)"
vector 361 Scenario.node[10].wlan[0].mac.dcf packetReceivedFromPeerWithoutRetry:vector(packetBytes) ETV
attr interpolationmode none
attr source ieee80211NotRetry(packetReceivedFromPeer)
attr title "packets received: without retry, vector(packetBytes)"
vector 362 Scenario.node[10].wlan[0].mac packetSentToUpper:vector(packetBytes) ETV
attr interpolationmode none
attr title "packets sent to upper layer, vector(packetBytes)"
vector 363 Scenario.node[10].udp packetReceived:vector(packetBytes) ETV
attr interpolationmode none
attr source packetReceived
attr title "packets received, vector(packetBytes)"
vector 364 Scenario.node[10].udp passedUpPk:vector(count) ETV
attr interpolationmode none
attr source packetSentToUpper
attr title "packets passed up, vector(count)"
vector 365 Scenario.node[10].app[0] packetReceived:vector(packetBytes) ETV
attr interpolationmode none
attr source packetReceived
attr title "packets received, vector(packetBytes)"
vector 366 Scenario.node[10].app[0] throughput:vector ETV
attr source throughput(packetReceived)
attr title "throughput, vector"
attr unit bps
vector 367 Scenario.node[10].cache requestsReceived:vector ETV
attr interpolationmode none
attr source receive
attr title "requests received, vector"
vector 368 Scenario.node[10].cache hitRate:vector ETV
attr interpolationmode none
attr source hitRate
attr title "hit rate, vector"
vector 369 Scenario.node[10].dataServer requestsReceived:vector ETV
attr interpolationmode none
attr source receive
attr title "requests received, vector"
vector 370 Scenario.node[7].app[0] packetSent:vector(packetBytes) ETV
attr interpolationmode none
attr source packetSent
attr title "packets sent, vector(packetBytes)"
vector 371 Scenario.node[7].udp packetSent:vector(packetBytes) ETV
attr interpolationmode none
attr source packetSent
attr title "packets sent, vector(packetBytes)"
vector 372 Scenario.node[7].lo[0].lo rcvdPkFromHl:vector(packetBytes) ETV
attr interpolationmode none
attr source packetReceivedFromUpper
attr title "packets received from higher layer, vector(packetBytes)"
vector 373 Scenario.node[7].lo[0].lo passedUpPk:vector(packetBytes) ETV
attr interpolationmode none
attr source packetSentToUpper
attr title "packets passed to higher layer, vector(packetBytes)"
vector 374 Scenario.node[7].wlan[0].mac packetReceivedFromUpper:vector(packetBytes) ETV
attr interpolationmode none
attr title "packets received from upper layer, vector(packetBytes)"
vector 375 Scenario.node[7].wlan[0].mac.dcf.channelAccess.pendingQueue packetPushed:vector(packetBytes) ETV
attr interpolationmode none
attr title "packet pushed, vector(packetBytes)"
vector 376 Scenario.node[7].wlan[0].mac.dcf.channelAccess.pendingQueue queueLength:vector ETV
attr interpolationmode sample-hold
attr source "count(packetPushed) - count(packetPopped) - count(packetRemoved) - count(packetDropped)"
attr title "queue length, vector"
vector 377 Scenario.node[7].wlan[0].mac.dcf.channelAccess.contention backoffPeriodGenerated:vector ETV
attr interpolationmode none
attr title "backoff periods, vector"
vector 378 Scenario.node[7].wlan[0].mac.dcf.channelAccess.contention backoffActive:vector ETV
attr interpolationmode sample-hold
attr source count(backoffStarted)-count(backoffStopped)
attr title "backoff active, vector"
vector 379 Scenario.node[7].udp packetReceived:vector(packetBytes) ETV
attr interpolationmode none
attr source packetReceived
attr title "packets received, vector(packetBytes)"
vector 380 Scenario.node[7].udp passedUpPk:vector(count) ETV
attr interpolationmode none
attr source packetSentToUpper
attr title "packets passed up, vector(count)"
vector 381 Scenario.node[7].wlan[0].mac.dcf.channelAccess.pendingQueue packetPopped:vector(packetBytes) ETV
attr interpolationmode none
attr title "packet popped, vector(packetBytes)"
vector 382 Scenario.node[7].wlan[0].mac.dcf.channelAccess.pendingQueue queueingTime:vector ETV
attr interpolationmode none
attr source queueingTime(packetPopped)
attr title "queueing times, vector"
attr unit s
vector 383 Scenario.node[7].wlan[0].mac.dcf.channelAccess.inProgressFrames queueLength:vector ETV
attr interpolationmode sample-hold
attr source "count(packetEnqueued) - count(packetDequeued)"
attr title "queue length, vector"
vector 384 Scenario.node[7].wlan[0].mac.dcf datarateSelected:vector ETV
attr interpolationmode none
attr title "datarates selected, vector"
vector 385 Scenario.node[7].wlan[0].mac packetSentToLower:vector(packetBytes) ETV
attr interpolationmode none
attr title "packets sent to lower layer, vector(packetBytes)"
vector 386 Scenario.node[7].wlan[0].mac.dcf frameSequenceActive:vector ETV
attr interpolationmode sample-hold
attr source count(frameSequenceStarted)-count(frameSequenceFinished)
attr title "frame sequence active, vector"
vector 387 Scenario.node[7].wlan[0].radio transmissionState:vector ETV
attr interpolationmode sample-hold
attr source transmissionStateChanged
attr title "Radio transmission state, vector"
vector 388 Scenario.node[7].wlan[0].mac.dcf packetSentToPeer:vector(packetBytes) ETV
attr interpolationmode none
attr title "packets sent, vector(packetBytes)"
vector 389 Scenario.node[7].wlan[0].mac.dcf packetSentToPeerMulticast:vector(packetBytes) ETV
attr interpolationmode none
attr source ieee80211Multicast(packetSentToPeer)
attr title "packets sent: multicast, vector(packetBytes)"
vector 390 Scenario.node[7].wlan[0].mac.dcf packetSentToPeerWithoutRetry:vector(packetBytes) ETV
attr interpolationmode none
attr source ieee80211NotRetry(packetSentToPeer)
attr title "packets sent: without retry, vector(packetBytes)"
vector 391 Scenario.node[7].wlan[0].mac.dcf.channelAccess.inProgressFrames queueingTime:vector ETV
attr interpolationmode none
attr source queueingTime(packetDequeued)
attr title "queueing times, vector"
vector 392 Scenario.node[6].cache requestsAnswered:vector ETV
attr interpolationmode none
attr source answer
attr title "requests answered, vector"
vector 393 Scenario.node[10].app[0] RequestReceiveTime:vector ETV
attr interpolationmode none
attr source receiveTime
attr title "request time, vector"
vector 394 Scenario.node[8].cache requestsAnswered:vector ETV
attr interpolationmode none
attr source answer
attr title "requests answered, vector"
43	90557 164 210 2375 15.184 79.115424065118 7 540 540 3780 2041200
44	90721 164 210 2375 15.184 79.115424065118 7 540 540 3780 2041200
108	90885 149 522 2368 35.150063881558 79.115424065118 5 570 570 2850 1624500
56	91034 164 217 2396 15.184 79.115677065118 7 570 570 3990 2274300
45	91198 164 213 2378 15.184 79.115424065118 7 542 542 3794 2056348
112	91362 149 522 2368 35.150063881558 79.115424065118 5 542 542 2710 1468820
111	91511 149 522 2368 35.150063881558 79.115424065118 5 570 570 2850 1624500
110	91660 149 522 2368 35.150063881558 79.115424065118 5 570 570 2850 1624500
109	91809 149 522 2368 35.150063881558 79.115424065118 5 570 570 2850 1624500
61	91958 176 221 2408 15.184424 79.116101065118 7 570 570 3990 2274300
60	92134 176 221 2408 15.184424 79.116101065118 7 570 570 3990 2274300
59	92310 176 221 2408 15.184424 79.116101065118 7 570 570 3990 2274300
57	92486 312 217 2408 15.184 79.116101065118 14 0 1 7 7
55	92798 199 217 2396 15.184 79.115677065118 7 12000000 12000000 84000000 1.008e+015
53	92997 164 217 2396 15.184 79.115677065118 7 0 0.000253 0.00035 7.3418e-008
52	93161 164 217 2396 15.184 79.115677065118 7 570 570 3990 2274300
46	93325 164 213 2378 15.184 79.115424065118 7 570 570 3990 2274300
47	93489 300 213 2396 15.184 79.115677065118 14 0 1 7 7
62	93789 211 221 2408 15.184424 79.116101065118 7 0.000424 0.000424 0.002968 1.258432e-006
54	94000 312 217 2408 15.184 79.116101065118 14 0 1 7 7
49	94312 300 213 2395 15.184 79.115677065118 14 0 1 7 7
48	94612 151 213 2378 15.184 79.115424065118 7 2 15 48 448
3	94763 12 2 2 0.1 0.1 1 15 15 15 225
58	94775 624 218 2409 15.184 79.116101065118 28 0 2 28 42
2	95399 567 2 2409 0.1 79.116101065118 25 0 3 28 58
0	95966 331 2 2409 0.1 79.116101065118 17 0 3 37 95
1	96297 11 2 2 0.1 0.1 1 3 3 3 9
50	96308 308 214 2379 15.184 79.115424065118 12 520 520 6240 3244800
42	96616 164 208 2373 15.184 79.115424065118 7 520 520 3640 1892800
51	96780 287 214 2379 15.184 79.115424065118 12 1 12 78 650
13	97067 382 61 2441 5.155 80.1 14 0 0.073000000000008 0.34597125182602 0.018009659779066
12	97449 12854 61 2741 0.1 85.1 851 0 122880 983040 83886080000
11	110303 545 61 2380 5.155 79.115424065118 24 512 512 12288 6291456
41	110848 164 207 2372 15.184 79.115424065118 7 512 512 3584 1835008
5	111012 511 55 2739 5.1 85.1 20 0 0.36842104792595 3.5333984643221 0.94748319902931
74	111523 133 395 2441 30.1 80.1 7 1 7 28 140
4	111656 332 55 2739 5.1 85.1 20 1 20 210 2870
10	111988 195 57 1988 5.1 74.129424468208 12 1 12 78 650
vector 395 Scenario.node[10].app[0] packetSent:vector(packetBytes) ETV
attr interpolationmode none
attr source packetSent
attr title "packets sent, vector(packetBytes)"
vector 396 Scenario.node[10].udp packetSent:vector(packetBytes) ETV
attr interpolationmode none
attr source packetSent
[...]
436	610851 198 3463 8652 98.212424969023 178.133 7 542 542 3794 2056348
424	611049 309 3412 6558 98.177424969023 148.112425007433 10 542 542 5420 2937640
423	611358 309 3412 6558 98.177424969023 148.112425007433 10 570 570 5700 3249000
422	611667 309 3412 6558 98.177424969023 148.112425007433 10 570 570 5700 3249000
421	611976 309 3412 6558 98.177424969023 148.112425007433 10 570 570 5700 3249000
450	612285 204 3479 8670 98.212848969023 178.133424 7 570 570 3990 2274300
449	612489 204 3479 8670 98.212848969023 178.133424 7 570 570 3990 2274300
448	612693 204 3479 8670 98.212848969023 178.133424 7 570 570 3990 2274300
446	612897 374 3467 8670 98.212424969023 178.133424 14 0 1 7 7
444	613271 233 3467 8656 98.212424969023 178.133 7 12000000 12000000 84000000 1.008e+015
442	613504 184 3467 8656 98.212424969023 178.133 7 0 0 0 0
441	613688 198 3467 8656 98.212424969023 178.133 7 570 570 3990 2274300
437	613886 198 3463 8652 98.212424969023 178.133 7 570 570 3990 2274300
438	614084 368 3463 8656 98.212424969023 178.133 14 0 1 7 7
451	614452 239 3479 8670 98.212848969023 178.133424 7 0.000424 0.000424 0.002968 1.258432e-006
443	614691 374 3467 8670 98.212424969023 178.133424 14 0 1 7 7
440	615065 368 3463 8655 98.212424969023 178.133 14 0 1 7 7
439	615433 188 3463 8652 98.212424969023 178.133 7 2 15 65 785
419	615621 18 3368 3368 98.1 98.1 1 15 15 15 225
447	615639 748 3468 8671 98.212424969023 178.133424 28 0 2 28 42
418	616387 969 3368 8671 98.1 178.133424 35 0 3 48 108
416	617356 425 3368 8671 98.1 178.133424 17 0 3 37 95
417	617781 17 3368 3368 98.1 98.1 1 3 3 3 9
425	617798 507 3415 8653 98.177424969023 178.133 17 520 520 8840 4596800
433	618305 198 3458 8647 98.212424969023 178.133 7 520 520 3640 1892800
426	618503 481 3415 8653 98.177424969023 178.133 17 1 17 153 1785
458	618984 325 3748 8367 103.1 173.1 14 0 0.094000000000008 0.19800000000004 0.013974000000003
428	619309 31013 3416 8830 0.1 180 1800 0 204800 1269760 125829120000
427	650322 886 3416 8654 98.177424969023 178.133 31 512 512 15872 8126464
432	651208 198 3457 8646 98.212424969023 178.133 7 512 512 3584 1835008
430	651406 804 3416 8643 98.177424969023 178.1 24 0 0.43478259444237 6.196214556694 1.9869399577135
457	652210 181 3748 8367 103.1 173.1 10 1 10 55 385
429	652391 534 3416 8643 98.177424969023 178.1 24 1 24 300 4900
431	652925 344 3417 8645 98.177424969023 178.1 14 1 14 105 1015
499	653269 202 4622 8155 120.103 167.179424134554 8 540 540 4320 2332800
500	653471 202 4622 8155 120.103 167.179424134554 8 540 540 4320 2332800
577	653673 246 4991 8614 132.120424310103 177.184424068447 8 570 570 4560 2599200
512	653919 202 4629 8162 120.103 167.179424134554 8 570 570 4560 2599200
501	654121 202 4625 8158 120.103 167.179424134554 8 542 542 4336 2350112
581	654323 246 4991 8614 132.120424310103 177.184424068447 8 542 542 4336 2350112
580	654569 246 4991 8614 132.120424310103 177.184424068447 8 570 570 4560 2599200
579	654815 246 4991 8614 132.120424310103 177.184424068447 8 570 570 4560 2599200
578	655061 246 4991 8614 132.120424310103 177.184424068447 8 570 570 4560 2599200
517	655307 218 4642 8177 120.103424 167.179848134554 8 570 570 4560 2599200
516	655525 218 4642 8177 120.103424 167.179848134554 8 570 570 4560 2599200
515	655743 218 4642 8177 120.103424 167.179848134554 8 570 570 4560 2599200
513	655961 388 4629 8177 120.103 167.179848134554 16 0 1 8 8
511	656349 242 4629 8162 120.103 167.179424134554 8 12000000 12000000 96000000 1.152e+015
509	656591 200 4629 8162 120.103 167.179424134554 8 0 0.000136 0.000233 2.7905e-008
508	656791 202 4629 8162 120.103 167.179424134554 8 570 570 4560 2599200
502	656993 202 4625 8158 120.103 167.179424134554 8 570 570 4560 2599200
503	657195 372 4625 8162 120.103 167.179424134554 16 0 1 8 8
518	657567 258 4642 8177 120.103424 167.179848134554 8 0.000424 0.000424 0.003392 1.438208e-006
510	657825 388 4629 8177 120.103 167.179848134554 16 0 1 8 8
505	658213 372 4625 8161 120.103 167.179424134554 16 0 1 8 8
504	658585 187 4625 8158 120.103 167.179424134554 8 3 13 50 402
490	658772 19 4465 4465 115.1 115.1 1 15 15 15 225
514	658791 776 4630 8178 120.103 167.179848134554 32 0 2 32 48
489	659567 866 4465 8613 115.1 177.184424068447 33 0 3 41 89
487	660433 442 4465 8178 115.1 167.179848134554 19 0 3 42 108
488	660875 18 4465 4465 115.1 115.1 1 3 3 3 9
506	660893 448 4626 8617 120.103 177.184424068447 16 520 520 8320 4326400
498	661341 202 4620 8153 120.103 167.179424134554 8 520 520 4160 2163200
507	661543 423 4626 8617 120.103 177.184424068447 16 1 16 136 1496
523	661966 241 4760 8515 125.175 175.1 8 0 0.092000000000013 0.36784857780005 0.028191372621489
496	662207 31017 4619 8830 0.1 180 1800 0 122880 1269760 105696460800
495	693224 831 4619 8632 120.103 177.224424068447 31 512 512 15872 8126464
497	694055 202 4619 8152 120.103 167.179424134554 8 512 512 4096 2097152
493	694257 594 4615 8618 120.1 177.184424068447 19 0 0.23076923191547 2.1783181130886 0.39359606231497
667	694851 83 6018 8515 140.1 175.1 4 1 4 10 30
492	694934 429 4615 8618 120.1 177.184424068447 19 1 19 190 2470
494	695363 342 4618 8619 120.1 177.184424068447 15 1 15 120 1240
557	695705 181 4965 8590 132.12 177.184 8 540 540 4320 2332800
558	695886 181 4965 8590 132.12 177.184 8 540 540 4320 2332800
608	696067 214 5418 8180 135.1664242889 167.179848269108 7 570 570 3990 2274300
570	696281 181 4972 8597 132.12 177.184 8 570 570 4560 2599200
559	696462 181 4968 8593 132.12 177.184 8 542 542 4336 2350112
612	696643 214 5418 8180 135.1664242889 167.179848269108 7 542 542 3794 2056348
611	696857 214 5418 8180 135.1664242889 167.179848269108 7 570 570 3990 2274300
610	697071 214 5418 8180 135.1664242889 167.179848269108 7 570 570 3990 2274300
609	697285 214 5418 8180 135.1664242889 167.179848269108 7 570 570 3990 2274300
575	697499 204 4988 8611 132.120424 177.184424 8 570 570 4560 2599200
574	697703 204 4988 8611 132.120424 177.184424 8 570 570 4560 2599200
573	697907 204 4988 8611 132.120424 177.184424 8 570 570 4560 2599200
571	698111 353 4972 8611 132.12 177.184424 16 0 1 8 8
569	698464 221 4972 8597 132.12 177.184 8 12000000 12000000 96000000 1.152e+015
567	698685 165 4972 8597 132.12 177.184 8 0 0 0 0
566	698850 181 4972 8597 132.12 177.184 8 570 570 4560 2599200
560	699031 181 4968 8593 132.12 177.184 8 570 570 4560 2599200
561	699212 330 4968 8597 132.12 177.184 16 0 1 8 8
576	699542 244 4988 8611 132.120424 177.184424 8 0.000424 0.000424 0.003392 1.438208e-006
568	699786 353 4972 8611 132.12 177.184424 16 0 1 8 8
563	700139 330 4968 8596 132.12 177.184 16 0 1 8 8
562	700469 171 4968 8593 132.12 177.184 8 4 15 74 778
527	700640 19 4783 4783 127.1 127.1 1 15 15 15 225
572	700659 706 4973 8612 132.12 177.184424 32 0 2 32 48
526	701365 771 4783 8612 127.1 177.184424 31 0 3 37 79
524	702136 407 4783 8612 127.1 177.184424 19 0 3 42 108
525	702543 18 4783 4783 127.1 127.1 1 3 3 3 9
564	702561 395 4969 8594 132.12 177.184 15 520 520 7800 4056000
556	702956 181 4963 8588 132.12 177.184 8 520 520 4160 2163200
565	703137 371 4969 8594 132.12 177.184 15 1 15 120 1240
672	703508 227 6043 8354 142.1 172.104 6 0 0.083945361345997 0.23977805339601 0.018206420379695
554	703735 31006 4962 8830 0.1 180 1800 0 122880 1146880 104018739200
553	734741 712 4962 8595 132.12 177.184 28 512 512 14336 7340032
555	735453 181 4962 8587 132.12 177.184 8 512 512 4096 2097152
539	735634 438 4909 8544 132.1 177.1 14 0 0.25 1.418229021132 0.21488473484737
671	736072 18 6043 6043 142.1 142.1 1 1 1 1 1
538	736090 298 4909 8544 132.1 177.1 14 1 14 105 1015
540	736388 279 4914 8547 132.1 177.1 13 1 13 91 819
649	736667 106 5903 7905 138.115424446632 165.146 4 540 540 2160 1166400
650	736773 106 5903 7905 138.115424446632 165.146 4 540 540 2160 1166400
635	736879 62 5828 6174 138.106424446632 143.187424359024 2 570 570 1140 649800
660	736941 106 5910 7912 138.115424446632 165.146 4 570 570 2280 1299600
651	737047 106 5906 7908 138.115424446632 165.146 4 542 542 2168 1175056
639	737153 62 5828 6174 138.106424446632 143.187424359024 2 542 542 1084 587528
638	737215 62 5828 6174 138.106424446632 143.187424359024 2 570 570 1140 649800
637	737277 62 5828 6174 138.106424446632 143.187424359024 2 570 570 1140 649800
636	737339 62 5828 6174 138.106424446632 143.187424359024 2 570 570 1140 649800
665	737401 112 5925 7927 138.115848446632 165.146424 4 570 570 2280 1299600
664	737513 112 5925 7927 138.115848446632 165.146424 4 570 570 2280 1299600
663	737625 112 5925 7927 138.115848446632 165.146424 4 570 570 2280 1299600
661	737737 202 5910 7927 138.115424446632 165.146424 8 0 1 4 4
659	737939 126 5910 7912 138.115424446632 165.146 4 12000000 12000000 48000000 5.76e+014
657	738065 98 5910 7912 138.115424446632 165.146 4 0 0 0 0
656	738163 106 5910 7912 138.115424446632 165.146 4 570 570 2280 1299600
652	738269 106 5906 7908 138.115424446632 165.146 4 570 570 2280 1299600
653	738375 196 5906 7912 138.115424446632 165.146 8 0 1 4 4
666	738571 132 5925 7927 138.115848446632 165.146424 4 0.000424 0.000424 0.001696 7.19104e-007
658	738703 202 5910 7927 138.115424446632 165.146424 8 0 1 4 4
655	738905 196 5906 7911 138.115424446632 165.146 8 0 1 4 4
654	739101 99 5906 7908 138.115424446632 165.146 4 2 11 25 215
607	739200 19 5327 5327 135.1 135.1 1 15 15 15 225
662	739219 404 5911 7928 138.115424446632 165.146424 16 0 2 16 24
606	739623 336 5327 7928 135.1 165.146424 13 0 3 13 25
604	739959 256 5327 7928 135.1 165.146424 11 0 3 22 56
605	740215 18 5327 5327 135.1 135.1 1 3 3 3 9
640	740233 168 5831 7909 138.106424446632 165.146 6 520 520 3120 1622400
648	740401 106 5901 7903 138.115424446632 165.146 4 520 520 2080 1081600
641	740507 156 5831 7909 138.106424446632 165.146 6 1 6 21 91
669	740663 160 6019 8516 140.1 175.1 6 0 0.072000000000003 0.11200000000002 0.0060560000000012
643	740823 30975 5832 8830 0.1 180 1800 0 122880 532480 41943040000
642	771798 340 5832 8324 138.106424446632 170.114 13 512 512 6656 3407872
647	772138 106 5900 7902 138.115424446632 165.146 4 512 512 2048 1048576
645	772244 300 5832 8516 138.106424446632 175.1 10 0 0.5 2.6746032238007 0.85823762095734
668	772544 54 6019 8516 140.1 175.1 3 1 3 6 14
644	772598 203 5832 8516 138.106424446632 175.1 10 1 10 55 385
646	772801 148 5833 8237 138.106424446632 170.1 7 1 7 28 140
704	772949 66 7285 8552 157.106 177.104 3 540 540 1620 874800
705	773015 66 7285 8552 157.106 177.104 3 540 540 1620 874800
717	773081 66 7292 8559 157.106 177.104 3 570 570 1710 974700
706	773147 66 7288 8555 157.106 177.104 3 542 542 1626 881292
722	773213 75 7308 8573 157.106424 177.104424 3 570 570 1710 974700
721	773288 75 7308 8573 157.106424 177.104424 3 570 570 1710 974700
720	773363 75 7308 8573 157.106424 177.104424 3 570 570 1710 974700
718	773438 129 7292 8573 157.106 177.104424 6 0 1 3 3
716	773567 81 7292 8559 157.106 177.104 3 12000000 12000000 36000000 4.32e+014
714	773648 60 7292 8559 157.106 177.104 3 0 0 0 0
713	773708 66 7292 8559 157.106 177.104 3 570 570 1710 974700
707	773774 66 7288 8555 157.106 177.104 3 570 570 1710 974700
708	773840 120 7288 8559 157.106 177.104 6 0 1 3 3
723	773960 90 7308 8573 157.106424 177.104424 3 0.000424 0.000424 0.001272 5.39328e-007
715	774050 129 7292 8573 157.106 177.104424 6 0 1 3 3
710	774179 120 7288 8558 157.106 177.104 6 0 1 3 3
709	774299 60 7288 8555 157.106 177.104 3 3 8 19 137
676	774359 19 6418 6418 147.1 147.1 1 15 15 15 225
719	774378 258 7293 8574 157.106 177.104424 12 0 2 12 18
675	774636 147 6418 8574 147.1 177.104424 7 0 1 4 4
673	774783 183 6418 8574 147.1 177.104424 9 0 3 17 43
674	774966 18 6418 6418 147.1 147.1 1 3 3 3 9
711	774984 66 7289 8556 157.106 177.104 3 520 520 1560 811200
703	775050 66 7283 8550 157.106 177.104 3 520 520 1560 811200
712	775116 60 7289 8556 157.106 177.104 3 1 3 6 14
686	775176 90 6776 8350 152.127 172.1 3 0 0.027000000000015 0.04800000000003 0.0011700000000015
685	775266 30962 6776 8830 0.1 180 1800 0 81920 327680 23488102400
684	806228 176 6776 8557 152.127 177.104 8 512 512 4096 2097152
702	806404 66 7282 8549 157.106 177.104 3 512 512 1536 786432
682	806470 138 6771 8545 152.1 177.1 6 0 0.20000000298023 0.36666667461395 0.067777780625555
785	806608 18 8350 8350 172.1 172.1 1 1 1 1 1
681	806626 108 6771 8545 152.1 177.1 6 1 6 21 91
683	806734 90 6775 8548 152.1 177.1 5 1 5 15 55
759	806824 74 7661 8273 161.11 170.102424748992 3 540 540 1620 874800
760	806898 74 7661 8273 161.11 170.102424748992 3 540 540 1620 874800
779	806972 62 7742 8266 161.172850133906 170.102424748992 2 570 570 1140 649800
772	807034 74 7668 8290 161.11 170.102586748992 3 570 570 1710 974700
761	807108 74 7664 8276 161.11 170.102424748992 3 542 542 1626 881292
783	807182 62 7742 8266 161.172850133906 170.102424748992 2 542 542 1084 587528
782	807244 62 7742 8266 161.172850133906 170.102424748992 2 570 570 1140 649800
781	807306 62 7742 8266 161.172850133906 170.102424748992 2 570 570 1140 649800
780	807368 62 7742 8266 161.172850133906 170.102424748992 2 570 570 1140 649800
777	807430 81 7684 8304 161.110424 170.103010748992 3 570 570 1710 974700
776	807511 81 7684 8304 161.110424 170.103010748992 3 570 570 1710 974700
775	807592 81 7684 8304 161.110424 170.103010748992 3 570 570 1710 974700
773	807673 143 7668 8304 161.11 170.103010748992 6 0 1 3 3
771	807816 89 7668 8290 161.11 170.102586748992 3 12000000 12000000 36000000 4.32e+014
769	807905 75 7668 8290 161.11 170.102586748992 3 0 0.000162 0.000162 2.6244e-008
768	807980 74 7668 8290 161.11 170.102586748992 3 570 570 1710 974700
762	808054 74 7664 8276 161.11 170.102424748992 3 570 570 1710 974700
763	808128 136 7664 8290 161.11 170.102586748992 6 0 1 3 3
778	808264 96 7684 8304 161.110424 170.103010748992 3 0.000424 0.000424 0.001272 5.39328e-007
770	808360 143 7668 8304 161.11 170.103010748992 6 0 1 3 3
765	808503 136 7664 8289 161.11 170.102586748992 6 0 1 3 3
764	808639 70 7664 8276 161.11 170.102424748992 3 8 14 35 429
680	808709 19 6754 6754 151.1 151.1 1 15 15 15 225
774	808728 286 7669 8305 161.11 170.103010748992 12 0 2 12 18
679	809014 277 6754 8305 151.1 170.103010748992 11 0 3 12 24
677	809291 197 6754 8305 151.1 170.103010748992 9 0 3 17 43
678	809488 18 6754 6754 151.1 151.1 1 3 3 3 9
766	809506 136 7665 8277 161.11 170.102424748992 5 520 520 2600 1352000
758	809642 74 7659 8271 161.11 170.102424748992 3 520 520 1560 811200
767	809716 126 7665 8277 161.11 170.102424748992 5 1 5 15 55
701	809842 153 7172 8533 156.159 176.191 4 0.038000000000011 0.091000000000008 0.26085013390602 0.018513142010124
700	809995 30967 7172 8830 0.1 180 1800 0 122880 409600 33554432000
699	840962 245 7172 8533 156.159 176.191 10 512 512 5120 2621440
757	841207 74 7658 8270 161.11 170.102424748992 3 512 512 1536 786432
697	841281 152 7168 8530 156.1 176.1 6 0 0.25 0.61666667461395 0.13027778062556
784	841433 29 8270 8270 170.102424748992 170.102424748992 1 1 1 1 1
696	841462 119 7168 8530 156.1 176.1 6 1 6 21 91
698	841581 90 7171 8532 156.1 176.1 5 1 5 15 55
731	841671 75 7554 8242 160.184 170.102 3 540 540 1620 874800
732	841746 75 7554 8242 160.184 170.102 3 540 540 1620 874800
751	841821 124 7625 8307 160.185011124494 170.103011497984 4 570 570 2280 1299600
744	841945 75 7561 8249 160.184 170.102 3 570 570 1710 974700
733	842020 75 7557 8245 160.184 170.102 3 542 542 1626 881292
755	842095 124 7625 8307 160.185011124494 170.103011497984 4 542 542 2168 1175056
754	842219 124 7625 8307 160.185011124494 170.103011497984 4 570 570 2280 1299600
753	842343 124 7625 8307 160.185011124494 170.103011497984 4 570 570 2280 1299600
752	842467 124 7625 8307 160.185011124494 170.103011497984 4 570 570 2280 1299600
749	842591 81 7577 8263 160.184424 170.102424 3 570 570 1710 974700
748	842672 81 7577 8263 160.184424 170.102424 3 570 570 1710 974700
747	842753 81 7577 8263 160.184424 170.102424 3 570 570 1710 974700
745	842834 144 7561 8263 160.184 170.102424 6 0 1 3 3
743	842978 90 7561 8249 160.184 170.102 3 12000000 12000000 36000000 4.32e+014
741	843068 69 7561 8249 160.184 170.102 3 0 0 0 0
740	843137 75 7561 8249 160.184 170.102 3 570 570 1710 974700
734	843212 75 7557 8245 160.184 170.102 3 570 570 1710 974700
735	843287 138 7557 8249 160.184 170.102 6 0 1 3 3
750	843425 96 7577 8263 160.184424 170.102424 3 0.000424 0.000424 0.001272 5.39328e-007
742	843521 144 7561 8263 160.184 170.102424 6 0 1 3 3
737	843665 138 7557 8248 160.184 170.102 6 0 1 3 3
736	843803 71 7557 8245 160.184 170.102 3 0 14 26 340
695	843874 19 7154 7154 155.1 155.1 1 15 15 15 225
746	843893 288 7562 8264 160.184 170.102424 12 0 2 12 18
694	844181 394 7154 8306 155.1 170.103011497984 15 0 3 20 44
692	844575 198 7154 8264 155.1 170.102424 9 0 3 17 43
693	844773 18 7154 7154 155.1 155.1 1 3 3 3 9
738	844791 199 7558 8310 160.184 170.103011497984 7 520 520 3640 1892800
730	844990 75 7552 8240 160.184 170.102 3 520 520 1560 811200
739	845065 185 7558 8310 160.184 170.103011497984 7 1 7 28 140
756	845250 162 7629 8520 160.185011124494 175.107 4 0.003011497984005 0.085011124494002 0.16602262247801 0.012325960407842
728	845412 30973 7551 8830 0.1 180 1800 0 122880 532480 52009369600
727	876385 349 7551 8520 160.184 175.107 13 512 512 6656 3407872
729	876734 75 7551 8239 160.184 170.102 3 512 512 1536 786432
725	876809 130 7496 8517 160.1 175.1 6 0 0 0 0
724	876939 130 7496 8517 160.1 175.1 6 1 6 21 91
726	877069 130 7500 8519 160.1 175.1 6 1 6 21 91
124	877199 385 570 8459 38.186 173.199 17 540 540 9180 4957200
125	877584 385 570 8459 38.186 173.199 17 540 540 9180 4957200
155	877969 753 706 6604 43.24684913115 148.134850014866 25 570 570 14250 8122500
137	878722 385 577 8466 38.186 173.199 17 570 570 9690 5523300
126	879107 385 573 8462 38.186 173.199 17 542 542 9214 4993988
159	879492 723 706 6604 43.24684913115 148.134850014866 24 542 542 13008 7050336
257	880215 30 1401 1401 63.154945767334 63.154945767334 1 570 570 570 324900
256	880245 30 1401 1401 63.154945767334 63.154945767334 1 570 570 570 324900
158	880275 723 706 6604 43.24684913115 148.134850014866 24 570 570 13680 7797600
157	880998 723 706 6604 43.24684913115 148.134850014866 24 570 570 13680 7797600
156	881721 723 706 6604 43.24684913115 148.134850014866 24 570 570 13680 7797600
142	882444 428 584 8480 38.186424 173.199424 17 570 570 9690 5523300
141	882872 428 584 8480 38.186424 173.199424 17 570 570 9690 5523300
140	883300 428 584 8480 38.186424 173.199424 17 570 570 9690 5523300
138	883728 745 577 8480 38.186 173.199424 34 0 1 17 17
136	884473 470 577 8466 38.186 173.199 17 12000000 12000000 204000000 2.448e+015
134	884943 372 577 8466 38.186 173.199 17 0 0.000175 0.000382 5.619e-008
133	885315 385 577 8466 38.186 173.199 17 570 570 9690 5523300
127	885700 385 573 8462 38.186 173.199 17 570 570 9690 5523300
128	886085 702 573 8466 38.186 173.199 34 0 1 17 17
143	886787 513 584 8480 38.186424 173.199424 17 0.000424 0.000424 0.007208 3.056192e-006
135	887300 745 577 8480 38.186 173.199424 34 0 1 17 17
130	888045 702 573 8465 38.186 173.199 34 0 1 17 17
129	888747 356 573 8462 38.186 173.199 17 0 15 133 1349
78	889103 16 451 451 33.1 33.1 1 15 15 15 225
139	889119 1490 578 8481 38.186 173.199424 68 0 2 68 102
77	890609 2108 451 8481 33.1 173.199424 86 0 3 120 272
75	892717 756 451 8481 33.1 173.199424 37 0 3 87 225
76	893473 15 451 451 33.1 33.1 1 3 3 3 9
131	893488 1108 574 8463 38.186 173.199 41 520 520 21320 11086400
123	894596 385 568 8457 38.186 173.199 17 520 520 8840 4596800
132	894981 1058 574 8463 38.186 173.199 41 1 41 861 23821
160	896039 587 710 8641 43.24684913115 178.1 21 0 0.14684929965 0.73519297436001 0.077827500595314
121	896626 30608 567 8830 0.1 180 1800 0 163840 2826240 229847859200
120	927234 1787 567 8464 38.186 173.199 69 512 512 35328 18087936
122	929021 385 567 8456 38.186 173.199 17 512 512 8704 4456448
118	929406 1339 564 8641 38.1 178.1 42 0 0.33333334326744 5.9127170145512 1.2248603697552
260	930745 288 1497 8641 65.103424685134 178.1 14 1 14 105 1015
117	931033 905 564 8641 38.1 178.1 42 1 42 903 25585
119	931938 608 566 8369 38.1 173.1 28 1 28 406 7714

