version 2
run General-0-20220422-21:23:45-7296
attr configname General
attr datetime 20220422-21:23:45
attr experiment General
attr inifile omnetpp.ini
attr iterationvars ""
attr iterationvarsf ""
attr measurement ""
attr network Scenario
attr processid 7296
attr repetition 0
attr replication #0
attr resultdir results
attr runnumber 0
attr seedset 0
param *.node[*].numApps 1
param *.node[*].app[0].typename "\"v2v_caching.veins_inet.VeinsInetSampleApplication\""
param *.node[*].app[0].interface "\"wlan0\""
param *.node[*].wlan[0].opMode "\"p\""
param *.node[*].wlan[0].radio.typename "\"Ieee80211DimensionalRadio\""
param *.node[*].wlan[0].radio.bandName "\"5.9 GHz\""
param *.node[*].wlan[0].radio.channelNumber 3
param *.node[*].wlan[0].radio.transmitter.power 20mW
param *.node[*].wlan[0].radio.bandwidth "10 MHz"
param *.node[*].wlan[*].radio.antenna.mobility.typename "\"AttachedMobility\""
param *.node[*].wlan[*].radio.antenna.mobility.mobilityModule "\"^.^.^.^.mobility\""
param *.node[*].wlan[*].radio.antenna.mobility.offsetX -2.5m
param *.node[*].wlan[*].radio.antenna.mobility.offsetZ 1.5m
param *.node[*].wlan[*].radio.antenna.mobility.constraintAreaMinX 0m
param *.node[*].wlan[*].radio.antenna.mobility.constraintAreaMaxX 0m
param *.node[*].wlan[*].radio.antenna.mobility.constraintAreaMinY 0m
param *.node[*].wlan[*].radio.antenna.mobility.constraintAreaMaxY 0m
param *.node[*].wlan[*].radio.antenna.mobility.constraintAreaMinZ 0m
param *.node[*].wlan[*].radio.antenna.mobility.constraintAreaMaxZ 0m
param *.node[*].ipv4.configurator.typename "\"HostAutoConfigurator\""
param *.node[*].ipv4.configurator.interfaces "\"wlan0\""
param *.node[*].ipv4.configurator.mcastGroups "\"224.0.0.1\""
param *.node[*].mobility.typename "\"VeinsInetMobility\""
param *.manager.updateInterval 0.1s
param *.manager.host "\"localhost\""
param *.manager.port 9999
param *.manager.autoShutdown true
param *.manager.launchConfig "xmldoc(\"a14.launchd.xml\")"
param *.manager.moduleType "\"v2v_caching.veins_inet.VeinsInetCar\""
param *.radioMedium.obstacleLoss.typename "\"IdealObstacleLoss\""

vector 0 Scenario.node[0].wlan[0].radio radioMode:vector ETV
attr interpolationmode sample-hold
attr source radioModeChanged
attr title "Radio mode, vector"
vector 1 Scenario.node[0].wlan[0].radio radioChannel:vector ETV
attr interpolationmode sample-hold
attr source radioChannelChanged
attr title "Radio channel, vector"
vector 2 Scenario.node[0].wlan[0].radio receptionState:vector ETV
attr interpolationmode sample-hold
attr source receptionStateChanged
attr title "Radio reception state, vector"
vector 3 Scenario.node[0].wlan[0].mac.dcf.recoveryProcedure contentionWindowChanged:vector ETV
attr interpolationmode sample-hold
attr title "contention window, vector"
vector 4 Scenario.node[0].cache requestsReceived:vector ETV
attr interpolationmode none
attr source receive
attr title "requests received, vector"
vector 5 Scenario.node[0].cache hitRate:vector ETV
attr interpolationmode none
attr source hitRate
attr title "hit rate, vector"
vector 6 Scenario.node[1].wlan[0].radio radioMode:vector ETV
attr interpolationmode sample-hold
attr source radioModeChanged
attr title "Radio mode, vector"
vector 7 Scenario.node[1].wlan[0].radio radioChannel:vector ETV
attr interpolationmode sample-hold
attr source radioChannelChanged
attr title "Radio channel, vector"
vector 8 Scenario.node[1].wlan[0].radio receptionState:vector ETV
attr interpolationmode sample-hold
attr source receptionStateChanged
attr title "Radio reception state, vector"
vector 9 Scenario.node[1].wlan[0].mac.dcf.recoveryProcedure contentionWindowChanged:vector ETV
attr interpolationmode sample-hold
attr title "contention window, vector"
vector 10 Scenario.node[0].dataServer requestsReceived:vector ETV
attr interpolationmode none
attr source receive
attr title "requests received, vector"
vector 11 Scenario.node[0].app[0] packetReceived:vector(packetBytes) ETV
attr interpolationmode none
attr source packetReceived
attr title "packets received, vector(packetBytes)"
vector 12 Scenario.node[0].app[0] throughput:vector ETV
attr source throughput(packetReceived)
attr title "throughput, vector"
attr unit bps
vector 13 Scenario.node[0].app[0] RequestReceiveTime:vector ETV
attr interpolationmode none
attr source receiveTime
attr title "request time, vector"
vector 14 Scenario.node[1].cache requestsReceived:vector ETV
attr interpolationmode none
attr source receive
attr title "requests received, vector"
vector 15 Scenario.node[1].cache hitRate:vector ETV
attr interpolationmode none
attr source hitRate
attr title "hit rate, vector"
vector 16 Scenario.node[1].dataServer requestsReceived:vector ETV
attr interpolationmode none
attr source receive
attr title "requests received, vector"
vector 17 Scenario.node[1].app[0] packetReceived:vector(packetBytes) ETV
attr interpolationmode none
attr source packetReceived
attr title "packets received, vector(packetBytes)"
vector 18 Scenario.node[1].app[0] throughput:vector ETV
attr source throughput(packetReceived)
attr title "throughput, vector"
attr unit bps
vector 19 Scenario.node[1].app[0] packetSent:vector(packetBytes) ETV
attr interpolationmode none
attr source packetSent
attr title "packets sent, vector(packetBytes)"
vector 20 Scenario.node[1].udp packetSent:vector(packetBytes) ETV
attr interpolationmode none
attr source packetSent
attr title "packets sent, vector(packetBytes)"
vector 21 Scenario.node[1].lo[0].lo rcvdPkFromHl:vector(packetBytes) ETV
attr interpolationmode none
attr source packetReceivedFromUpper
attr title "packets received from higher layer, vector(packetBytes)"
vector 22 Scenario.node[1].lo[0].lo passedUpPk:vector(packetBytes) ETV
attr interpolationmode none
attr source packetSentToUpper
attr title "packets passed to higher layer, vector(packetBytes)"
vector 23 Scenario.node[1].wlan[0].mac packetReceivedFromUpper:vector(packetBytes) ETV
attr interpolationmode none
attr title "packets received from upper layer, vector(packetBytes)"
vector 24 Scenario.node[1].wlan[0].mac.dcf.channelAccess.pendingQueue packetPushed:vector(packetBytes) ETV
attr interpolationmode none
attr title "packet pushed, vector(packetBytes)"
vector 25 Scenario.node[1].wlan[0].mac.dcf.channelAccess.pendingQueue queueLength:vector ETV
attr interpolationmode sample-hold
attr source "count(packetPushed) - count(packetPopped) - count(packetRemoved) - count(packetDropped)"
attr title "queue length, vector"
vector 26 Scenario.node[1].wlan[0].mac.dcf.channelAccess.contention backoffPeriodGenerated:vector ETV
attr interpolationmode none
attr title "backoff periods, vector"
vector 27 Scenario.node[1].wlan[0].mac.dcf.channelAccess.contention backoffActive:vector ETV
attr interpolationmode sample-hold
attr source count(backoffStarted)-count(backoffStopped)
attr title "backoff active, vector"
vector 28 Scenario.node[1].udp packetReceived:vector(packetBytes) ETV
attr interpolationmode none
attr source packetReceived
attr title "packets received, vector(packetBytes)"
vector 29 Scenario.node[1].udp passedUpPk:vector(count) ETV
attr interpolationmode none
attr source packetSentToUpper
attr title "packets passed up, vector(count)"
vector 30 Scenario.node[1].wlan[0].mac.dcf.channelAccess.pendingQueue packetPopped:vector(packetBytes) ETV
attr interpolationmode none
attr title "packet popped, vector(packetBytes)"
vector 31 Scenario.node[1].wlan[0].mac.dcf.channelAccess.pendingQueue queueingTime:vector ETV
attr interpolationmode none
attr source queueingTime(packetPopped)
attr title "queueing times, vector"
attr unit s
vector 32 Scenario.node[1].wlan[0].mac.dcf.channelAccess.inProgressFrames queueLength:vector ETV
attr interpolationmode sample-hold
attr source "count(packetEnqueued) - count(packetDequeued)"
attr title "queue length, vector"
vector 33 Scenario.node[1].wlan[0].mac.dcf datarateSelected:vector ETV
attr interpolationmode none
attr title "datarates selected, vector"
vector 34 Scenario.node[1].wlan[0].mac packetSentToLower:vector(packetBytes) ETV
attr interpolationmode none
attr title "packets sent to lower layer, vector(packetBytes)"
vector 35 Scenario.node[1].wlan[0].mac.dcf frameSequenceActive:vector ETV
attr interpolationmode sample-hold
attr source count(frameSequenceStarted)-count(frameSequenceFinished)
attr title "frame sequence active, vector"
vector 36 Scenario.node[1].wlan[0].radio transmissionState:vector ETV
attr interpolationmode sample-hold
attr source transmissionStateChanged
attr title "Radio transmission state, vector"
vector 37 Scenario.node[1].wlan[0].mac.dcf packetSentToPeer:vector(packetBytes) ETV
attr interpolationmode none
attr title "packets sent, vector(packetBytes)"
vector 38 Scenario.node[1].wlan[0].mac.dcf packetSentToPeerMulticast:vector(packetBytes) ETV
attr interpolationmode none
attr source ieee80211Multicast(packetSentToPeer)
attr title "packets sent: multicast, vector(packetBytes)"
vector 39 Scenario.node[1].wlan[0].mac.dcf packetSentToPeerWithoutRetry:vector(packetBytes) ETV
attr interpolationmode none
attr source ieee80211NotRetry(packetSentToPeer)
attr title "packets sent: without retry, vector(packetBytes)"
vector 40 Scenario.node[1].wlan[0].mac.dcf.channelAccess.inProgressFrames queueingTime:vector ETV
attr interpolationmode none
attr source queueingTime(packetDequeued)
attr title "queueing times, vector"
vector 41 Scenario.node[0].app[0] packetSent:vector(packetBytes) ETV
attr interpolationmode none
attr source packetSent
attr title "packets sent, vector(packetBytes)"
vector 42 Scenario.node[0].udp packetSent:vector(packetBytes) ETV
attr interpolationmode none
attr source packetSent
attr title "packets sent, vector(packetBytes)"
vector 43 Scenario.node[0].lo[0].lo rcvdPkFromHl:vector(packetBytes) ETV
attr interpolationmode none
attr source packetReceivedFromUpper
attr title "packets received from higher layer, vector(packetBytes)"
vector 44 Scenario.node[0].lo[0].lo passedUpPk:vector(packetBytes) ETV
attr interpolationmode none
attr source packetSentToUpper
attr title "packets passed to higher layer, vector(packetBytes)"
vector 45 Scenario.node[0].wlan[0].mac packetReceivedFromUpper:vector(packetBytes) ETV
attr interpolationmode none
attr title "packets received from upper layer, vector(packetBytes)"
vector 46 Scenario.node[0].wlan[0].mac.dcf.channelAccess.pendingQueue packetPushed:vector(packetBytes) ETV
attr interpolationmode none
attr title "packet pushed, vector(packetBytes)"
vector 47 Scenario.node[0].wlan[0].mac.dcf.channelAccess.pendingQueue queueLength:vector ETV
attr interpolationmode sample-hold
attr source "count(packetPushed) - count(packetPopped) - count(packetRemoved) - count(packetDropped)"
attr title "queue length, vector"
vector 48 Scenario.node[0].wlan[0].mac.dcf.channelAccess.contention backoffPeriodGenerated:vector ETV
attr interpolationmode none
attr title "backoff periods, vector"
vector 49 Scenario.node[0].wlan[0].mac.dcf.channelAccess.contention backoffActive:vector ETV
attr interpolationmode sample-hold
attr source count(backoffStarted)-count(backoffStopped)
attr title "backoff active, vector"
vector 50 Scenario.node[0].udp packetReceived:vector(packetBytes) ETV
attr interpolationmode none
attr source packetReceived
attr title "packets received, vector(packetBytes)"
vector 51 Scenario.node[0].udp passedUpPk:vector(count) ETV
attr interpolationmode none
attr source packetSentToUpper
attr title "packets passed up, vector(count)"
vector 52 Scenario.node[0].wlan[0].mac.dcf.channelAccess.pendingQueue packetPopped:vector(packetBytes) ETV
attr interpolationmode none
attr title "packet popped, vector(packetBytes)"
vector 53 Scenario.node[0].wlan[0].mac.dcf.channelAccess.pendingQueue queueingTime:vector ETV
attr interpolationmode none
attr source queueingTime(packetPopped)
attr title "queueing times, vector"
attr unit s
vector 54 Scenario.node[0].wlan[0].mac.dcf.channelAccess.inProgressFrames queueLength:vector ETV
attr interpolationmode sample-hold
attr source "count(packetEnqueued) - count(packetDequeued)"
attr title "queue length, vector"
vector 55 Scenario.node[0].wlan[0].mac.dcf datarateSelected:vector ETV
attr interpolationmode none
attr title "datarates selected, vector"
vector 56 Scenario.node[0].wlan[0].mac packetSentToLower:vector(packetBytes) ETV
attr interpolationmode none
attr title "packets sent to lower layer, vector(packetBytes)"
vector 57 Scenario.node[0].wlan[0].mac.dcf frameSequenceActive:vector ETV
attr interpolationmode sample-hold
attr source count(frameSequenceStarted)-count(frameSequenceFinished)
attr title "frame sequence active, vector"
vector 58 Scenario.node[0].wlan[0].radio transmissionState:vector ETV
attr interpolationmode sample-hold
attr source transmissionStateChanged
attr title "Radio transmission state, vector"
vector 59 Scenario.node[0].wlan[0].mac.dcf packetSentToPeer:vector(packetBytes) ETV
attr interpolationmode none
attr title "packets sent, vector(packetBytes)"
vector 60 Scenario.node[0].wlan[0].mac.dcf packetSentToPeerMulticast:vector(packetBytes) ETV
attr interpolationmode none
attr source ieee80211Multicast(packetSentToPeer)
attr title "packets sent: multicast, vector(packetBytes)"
vector 61 Scenario.node[0].wlan[0].mac.dcf packetSentToPeerWithoutRetry:vector(packetBytes) ETV
attr interpolationmode none
attr source ieee80211NotRetry(packetSentToPeer)
attr title "packets sent: without retry, vector(packetBytes)"
vector 62 Scenario.node[0].wlan[0].mac.dcf.channelAccess.inProgressFrames queueingTime:vector ETV
attr interpolationmode none
attr source queueingTime(packetDequeued)
attr title "queueing times, vector"
vector 63 Scenario.node[2].wlan[0].radio radioMode:vector ETV
attr interpolationmode sample-hold
attr source radioModeChanged
attr title "Radio mode, vector"
vector 64 Scenario.node[2].wlan[0].radio radioChannel:vector ETV
attr interpolationmode sample-hold
attr source radioChannelChanged
attr title "Radio channel, vector"
vector 65 Scenario.node[2].wlan[0].radio receptionState:vector ETV
attr interpolationmode sample-hold
attr source receptionStateChanged
attr title "Radio reception state, vector"
vector 66 Scenario.node[2].wlan[0].mac.dcf.recoveryProcedure contentionWindowChanged:vector ETV
attr interpolationmode sample-hold
attr title "contention window, vector"
vector 67 Scenario.node[1].app[0] RequestReceiveTime:vector ETV
attr interpolationmode none
attr source receiveTime
attr title "request time, vector"
vector 68 Scenario.node[2].cache requestsReceived:vector ETV
attr interpolationmode none
attr source receive
attr title "requests received, vector"
vector 69 Scenario.node[2].cache hitRate:vector ETV
attr interpolationmode none
attr source hitRate
attr title "hit rate, vector"
vector 70 Scenario.node[2].dataServer requestsReceived:vector ETV
attr interpolationmode none
attr source receive
attr title "requests received, vector"
vector 71 Scenario.node[2].app[0] packetReceived:vector(packetBytes) ETV
attr interpolationmode none
attr source packetReceived
attr title "packets received, vector(packetBytes)"
vector 72 Scenario.node[2].app[0] throughput:vector ETV
attr source throughput(packetReceived)
attr title "throughput, vector"
attr unit bps
vector 73 Scenario.node[2].app[0] RequestReceiveTime:vector ETV
attr interpolationmode none
attr source receiveTime
attr title "request time, vector"
vector 74 Scenario.node[0].cache requestsAnswered:vector ETV
attr interpolationmode none
attr source answer
attr title "requests answered, vector"
vector 75 Scenario.node[3].wlan[0].radio radioMode:vector ETV
attr interpolationmode sample-hold
attr source radioModeChanged
attr title "Radio mode, vector"
vector 76 Scenario.node[3].wlan[0].radio radioChannel:vector ETV
attr interpolationmode sample-hold
attr source radioChannelChanged
attr title "Radio channel, vector"
vector 77 Scenario.node[3].wlan[0].radio receptionState:vector ETV
attr interpolationmode sample-hold
attr source receptionStateChanged
attr title "Radio reception state, vector"
vector 78 Scenario.node[3].wlan[0].mac.dcf.recoveryProcedure contentionWindowChanged:vector ETV
attr interpolationmode sample-hold
attr title "contention window, vector"
vector 79 Scenario.node[1].cache requestsAnswered:vector ETV
attr interpolationmode none
attr source answer
attr title "requests answered, vector"
vector 80 Scenario.node[2].wlan[0].mac packetReceivedFromLower:vector(packetBytes) ETV
attr interpolationmode none
attr title "packets received from lower layer, vector(packetBytes)"
vector 81 Scenario.node[2].wlan[0].mac.dcf packetReceivedFromPeer:vector(packetBytes) ETV
attr interpolationmode none
attr title "packets received, vector(packetBytes)"
vector 82 Scenario.node[2].wlan[0].mac.dcf packetReceivedFromPeerMulticast:vector(packetBytes) ETV
attr interpolationmode none
attr source ieee80211Multicast(packetReceivedFromPeer)
attr title "packets received: multicast, vector(packetBytes)"
vector 83 Scenario.node[2].wlan[0].mac.dcf packetReceivedFromPeerWithoutRetry:vector(packetBytes) ETV
attr interpolationmode none
attr source ieee80211NotRetry(packetReceivedFromPeer)
attr title "packets received: without retry, vector(packetBytes)"
vector 84 Scenario.node[2].wlan[0].mac packetSentToUpper:vector(packetBytes) ETV
attr interpolationmode none
attr title "packets sent to upper layer, vector(packetBytes)"
vector 85 Scenario.node[2].udp packetReceived:vector(packetBytes) ETV
attr interpolationmode none
attr source packetReceived
attr title "packets received, vector(packetBytes)"
vector 86 Scenario.node[2].udp passedUpPk:vector(count) ETV
attr interpolationmode none
attr source packetSentToUpper
attr title "packets passed up, vector(count)"
vector 87 Scenario.node[2].cache requestsAnswered:vector ETV
attr interpolationmode none
attr source answer
attr title "requests answered, vector"
vector 88 Scenario.node[2].app[0] packetSent:vector(packetBytes) ETV
attr interpolationmode none
attr source packetSent
attr title "packets sent, vector(packetBytes)"
vector 89 Scenario.node[2].udp packetSent:vector(packetBytes) ETV
attr interpolationmode none
attr source packetSent
attr title "packets sent, vector(packetBytes)"
vector 90 Scenario.node[2].lo[0].lo rcvdPkFromHl:vector(packetBytes) ETV
attr interpolationmode none
attr source packetReceivedFromUpper
attr title "packets received from higher layer, vector(packetBytes)"
vector 91 Scenario.node[2].lo[0].lo passedUpPk:vector(packetBytes) ETV
attr interpolationmode none
attr source packetSentToUpper
attr title "packets passed to higher layer, vector(packetBytes)"
vector 92 Scenario.node[2].wlan[0].mac packetReceivedFromUpper:vector(packetBytes) ETV
attr interpolationmode none
attr title "packets received from upper layer, vector(packetBytes)"
vector 93 Scenario.node[2].wlan[0].mac.dcf.channelAccess.pendingQueue packetPushed:vector(packetBytes) ETV
attr interpolationmode none
attr title "packet pushed, vector(packetBytes)"
vector 94 Scenario.node[2].wlan[0].mac.dcf.channelAccess.pendingQueue queueLength:vector ETV
attr interpolationmode sample-hold
attr source "count(packetPushed) - count(packetPopped) - count(packetRemoved) - count(packetDropped)"
attr title "queue length, vector"
vector 95 Scenario.node[2].wlan[0].mac.dcf.channelAccess.contention backoffPeriodGenerated:vector ETV
attr interpolationmode none
attr title "backoff periods, vector"
vector 96 Scenario.node[2].wlan[0].mac.dcf.channelAccess.contention backoffActive:vector ETV
attr interpolationmode sample-hold
attr source count(backoffStarted)-count(backoffStopped)
attr title "backoff active, vector"
vector 97 Scenario.node[2].wlan[0].mac.dcf.channelAccess.pendingQueue packetPopped:vector(packetBytes) ETV
attr interpolationmode none
attr title "packet popped, vector(packetBytes)"
vector 98 Scenario.node[2].wlan[0].mac.dcf.channelAccess.pendingQueue queueingTime:vector ETV
attr interpolationmode none
attr source queueingTime(packetPopped)
attr title "queueing times, vector"
attr unit s
vector 99 Scenario.node[2].wlan[0].mac.dcf.channelAccess.inProgressFrames queueLength:vector ETV
attr interpolationmode sample-hold
attr source "count(packetEnqueued) - count(packetDequeued)"
attr title "queue length, vector"
vector 100 Scenario.node[2].wlan[0].mac.dcf datarateSelected:vector ETV
attr interpolationmode none
attr title "datarates selected, vector"
vector 101 Scenario.node[2].wlan[0].mac packetSentToLower:vector(packetBytes) ETV
attr interpolationmode none
attr title "packets sent to lower layer, vector(packetBytes)"
vector 102 Scenario.node[2].wlan[0].mac.dcf frameSequenceActive:vector ETV
attr interpolationmode sample-hold
attr source count(frameSequenceStarted)-count(frameSequenceFinished)
attr title "frame sequence active, vector"
vector 103 Scenario.node[2].wlan[0].radio transmissionState:vector ETV
attr interpolationmode sample-hold
attr source transmissionStateChanged
attr title "Radio transmission state, vector"
vector 104 Scenario.node[2].wlan[0].mac.dcf packetSentToPeer:vector(packetBytes) ETV
attr interpolationmode none
attr title "packets sent, vector(packetBytes)"
vector 105 Scenario.node[2].wlan[0].mac.dcf packetSentToPeerMulticast:vector(packetBytes) ETV
attr interpolationmode none
attr source ieee80211Multicast(packetSentToPeer)
attr title "packets sent: multicast, vector(packetBytes)"
vector 106 Scenario.node[2].wlan[0].mac.dcf packetSentToPeerWithoutRetry:vector(packetBytes) ETV
attr interpolationmode none
attr source ieee80211NotRetry(packetSentToPeer)
attr title "packets sent: without retry, vector(packetBytes)"
vector 107 Scenario.node[2].wlan[0].mac.dcf.channelAccess.inProgressFrames queueingTime:vector ETV
attr interpolationmode none
attr source queueingTime(packetDequeued)
attr title "queueing times, vector"
vector 108 Scenario.node[0].wlan[0].mac packetReceivedFromLower:vector(packetBytes) ETV
attr interpolationmode none
attr title "packets received from lower layer, vector(packetBytes)"
vector 109 Scenario.node[0].wlan[0].mac.dcf packetReceivedFromPeer:vector(packetBytes) ETV
attr interpolationmode none
attr title "packets received, vector(packetBytes)"
vector 110 Scenario.node[0].wlan[0].mac.dcf packetReceivedFromPeerMulticast:vector(packetBytes) ETV
attr interpolationmode none
attr source ieee80211Multicast(packetReceivedFromPeer)
attr title "packets received: multicast, vector(packetBytes)"
vector 111 Scenario.node[0].wlan[0].mac.dcf packetReceivedFromPeerWithoutRetry:vector(packetBytes) ETV
attr interpolationmode none
attr source ieee80211NotRetry(packetReceivedFromPeer)
attr title "packets received: without retry, vector(packetBytes)"
vector 112 Scenario.node[0].wlan[0].mac packetSentToUpper:vector(packetBytes) ETV
attr interpolationmode none
attr title "packets sent to upper layer, vector(packetBytes)"
vector 113 Scenario.node[4].wlan[0].radio radioMode:vector ETV
attr interpolationmode sample-hold
attr source radioModeChanged
attr title "Radio mode, vector"
vector 114 Scenario.node[4].wlan[0].radio radioChannel:vector ETV
attr interpolationmode sample-hold
attr source radioChannelChanged
attr title "Radio channel, vector"
vector 115 Scenario.node[4].wlan[0].radio receptionState:vector ETV
attr interpolationmode sample-hold
attr source receptionStateChanged
attr title "Radio reception state, vector"
vector 116 Scenario.node[4].wlan[0].mac.dcf.recoveryProcedure contentionWindowChanged:vector ETV
attr interpolationmode sample-hold
attr title "contention window, vector"
vector 117 Scenario.node[3].cache requestsReceived:vector ETV
attr interpolationmode none
attr source receive
attr title "requests received, vector"
vector 118 Scenario.node[3].cache hitRate:vector ETV
attr interpolationmode none
attr source hitRate
attr title "hit rate, vector"
vector 119 Scenario.node[3].dataServer requestsReceived:vector ETV
attr interpolationmode none
attr source receive
attr title "requests received, vector"
vector 120 Scenario.node[3].app[0] packetReceived:vector(packetBytes) ETV
attr interpolationmode none
attr source packetReceived
attr title "packets received, vector(packetBytes)"
vector 121 Scenario.node[3].app[0] throughput:vector ETV
attr source throughput(packetReceived)
attr title "throughput, vector"
attr unit bps
vector 122 Scenario.node[3].app[0] packetSent:vector(packetBytes) ETV
attr interpolationmode none
attr source packetSent
attr title "packets sent, vector(packetBytes)"
vector 123 Scenario.node[3].udp packetSent:vector(packetBytes) ETV
attr interpolationmode none
attr source packetSent
attr title "packets sent, vector(packetBytes)"
vector 124 Scenario.node[3].lo[0].lo rcvdPkFromHl:vector(packetBytes) ETV
attr interpolationmode none
attr source packetReceivedFromUpper
attr title "packets received from higher layer, vector(packetBytes)"
vector 125 Scenario.node[3].lo[0].lo passedUpPk:vector(packetBytes) ETV
attr interpolationmode none
attr source packetSentToUpper
attr title "packets passed to higher layer, vector(packetBytes)"
vector 126 Scenario.node[3].wlan[0].mac packetReceivedFromUpper:vector(packetBytes) ETV
attr interpolationmode none
attr title "packets received from upper layer, vector(packetBytes)"
vector 127 Scenario.node[3].wlan[0].mac.dcf.channelAccess.pendingQueue packetPushed:vector(packetBytes) ETV
attr interpolationmode none
attr title "packet pushed, vector(packetBytes)"
vector 128 Scenario.node[3].wlan[0].mac.dcf.channelAccess.pendingQueue queueLength:vector ETV
attr interpolationmode sample-hold
attr source "count(packetPushed) - count(packetPopped) - count(packetRemoved) - count(packetDropped)"
attr title "queue length, vector"
vector 129 Scenario.node[3].wlan[0].mac.dcf.channelAccess.contention backoffPeriodGenerated:vector ETV
attr interpolationmode none
attr title "backoff periods, vector"
vector 130 Scenario.node[3].wlan[0].mac.dcf.channelAccess.contention backoffActive:vector ETV
attr interpolationmode sample-hold
attr source count(backoffStarted)-count(backoffStopped)
attr title "backoff active, vector"
vector 131 Scenario.node[3].udp packetReceived:vector(packetBytes) ETV
attr interpolationmode none
attr source packetReceived
attr title "packets received, vector(packetBytes)"
vector 132 Scenario.node[3].udp passedUpPk:vector(count) ETV
attr interpolationmode none
attr source packetSentToUpper
attr title "packets passed up, vector(count)"
vector 133 Scenario.node[3].wlan[0].mac.dcf.channelAccess.pendingQueue packetPopped:vector(packetBytes) ETV
attr interpolationmode none
attr title "packet popped, vector(packetBytes)"
vector 134 Scenario.node[3].wlan[0].mac.dcf.channelAccess.pendingQueue queueingTime:vector ETV
attr interpolationmode none
attr source queueingTime(packetPopped)
attr title "queueing times, vector"
attr unit s
vector 135 Scenario.node[3].wlan[0].mac.dcf.channelAccess.inProgressFrames queueLength:vector ETV
attr interpolationmode sample-hold
attr source "count(packetEnqueued) - count(packetDequeued)"
attr title "queue length, vector"
vector 136 Scenario.node[3].wlan[0].mac.dcf datarateSelected:vector ETV
attr interpolationmode none
attr title "datarates selected, vector"
vector 137 Scenario.node[3].wlan[0].mac packetSentToLower:vector(packetBytes) ETV
attr interpolationmode none
attr title "packets sent to lower layer, vector(packetBytes)"
vector 138 Scenario.node[3].wlan[0].mac.dcf frameSequenceActive:vector ETV
attr interpolationmode sample-hold
attr source count(frameSequenceStarted)-count(frameSequenceFinished)
attr title "frame sequence active, vector"
vector 139 Scenario.node[3].wlan[0].radio transmissionState:vector ETV
attr interpolationmode sample-hold
attr source transmissionStateChanged
attr title "Radio transmission state, vector"
vector 140 Scenario.node[3].wlan[0].mac.dcf packetSentToPeer:vector(packetBytes) ETV
attr interpolationmode none
attr title "packets sent, vector(packetBytes)"
vector 141 Scenario.node[3].wlan[0].mac.dcf packetSentToPeerMulticast:vector(packetBytes) ETV
attr interpolationmode none
attr source ieee80211Multicast(packetSentToPeer)
attr title "packets sent: multicast, vector(packetBytes)"
vector 142 Scenario.node[3].wlan[0].mac.dcf packetSentToPeerWithoutRetry:vector(packetBytes) ETV
attr interpolationmode none
attr source ieee80211NotRetry(packetSentToPeer)
attr title "packets sent: without retry, vector(packetBytes)"
vector 143 Scenario.node[3].wlan[0].mac.dcf.channelAccess.inProgressFrames queueingTime:vector ETV
attr interpolationmode none
attr source queueingTime(packetDequeued)
attr title "queueing times, vector"
vector 144 Scenario.node[4].cache requestsReceived:vector ETV
attr interpolationmode none
attr source receive
attr title "requests received, vector"
vector 145 Scenario.node[4].cache hitRate:vector ETV
attr interpolationmode none
attr source hitRate
attr title "hit rate, vector"
vector 146 Scenario.node[4].dataServer requestsReceived:vector ETV
attr interpolationmode none
attr source receive
attr title "requests received, vector"
vector 147 Scenario.node[4].app[0] packetReceived:vector(packetBytes) ETV
attr interpolationmode none
attr source packetReceived
attr title "packets received, vector(packetBytes)"
vector 148 Scenario.node[4].app[0] throughput:vector ETV
attr source throughput(packetReceived)
attr title "throughput, vector"
attr unit bps
vector 149 Scenario.node[4].app[0] RequestReceiveTime:vector ETV
attr interpolationmode none
attr source receiveTime
attr title "request time, vector"
vector 150 Scenario.node[1].wlan[0].mac packetReceivedFromLower:vector(packetBytes) ETV
attr interpolationmode none
attr title "packets received from lower layer, vector(packetBytes)"
vector 151 Scenario.node[1].wlan[0].mac.dcf packetReceivedFromPeer:vector(packetBytes) ETV
attr interpolationmode none
attr title "packets received, vector(packetBytes)"
vector 152 Scenario.node[1].wlan[0].mac.dcf packetReceivedFromPeerMulticast:vector(packetBytes) ETV
attr interpolationmode none
attr source ieee80211Multicast(packetReceivedFromPeer)
attr title "packets received: multicast, vector(packetBytes)"
vector 153 Scenario.node[1].wlan[0].mac.dcf packetReceivedFromPeerWithoutRetry:vector(packetBytes) ETV
attr interpolationmode none
attr source ieee80211NotRetry(packetReceivedFromPeer)
attr title "packets received: without retry, vector(packetBytes)"
vector 154 Scenario.node[1].wlan[0].mac packetSentToUpper:vector(packetBytes) ETV
attr interpolationmode none
attr title "packets sent to upper layer, vector(packetBytes)"
vector 155 Scenario.node[3].wlan[0].mac packetReceivedFromLower:vector(packetBytes) ETV
attr interpolationmode none
attr title "packets received from lower layer, vector(packetBytes)"
vector 156 Scenario.node[3].wlan[0].mac.dcf packetReceivedFromPeer:vector(packetBytes) ETV
attr interpolationmode none
attr title "packets received, vector(packetBytes)"
vector 157 Scenario.node[3].wlan[0].mac.dcf packetReceivedFromPeerMulticast:vector(packetBytes) ETV
attr interpolationmode none
attr source ieee80211Multicast(packetReceivedFromPeer)
attr title "packets received: multicast, vector(packetBytes)"
vector 158 Scenario.node[3].wlan[0].mac.dcf packetReceivedFromPeerWithoutRetry:vector(packetBytes) ETV
attr interpolationmode none
attr source ieee80211NotRetry(packetReceivedFromPeer)
attr title "packets received: without retry, vector(packetBytes)"
vector 159 Scenario.node[3].wlan[0].mac packetSentToUpper:vector(packetBytes) ETV
attr interpolationmode none
attr title "packets sent to upper layer, vector(packetBytes)"
vector 160 Scenario.node[3].app[0] RequestReceiveTime:vector ETV
attr interpolationmode none
attr source receiveTime
attr title "request time, vector"
vector 161 Scenario.node[4].app[0] packetSent:vector(packetBytes) ETV
attr interpolationmode none
attr source packetSent
attr title "packets sent, vector(packetBytes)"
vector 162 Scenario.node[4].udp packetSent:vector(packetBytes) ETV
attr interpolationmode none
attr source packetSent
attr title "packets sent, vector(packetBytes)"
vector 163 Scenario.node[4].lo[0].lo rcvdPkFromHl:vector(packetBytes) ETV
attr interpolationmode none
attr source packetReceivedFromUpper
attr title "packets received from higher layer, vector(packetBytes)"
vector 164 Scenario.node[4].lo[0].lo passedUpPk:vector(packetBytes) ETV
attr interpolationmode none
attr source packetSentToUpper
attr title "packets passed to higher layer, vector(packetBytes)"
vector 165 Scenario.node[4].wlan[0].mac packetReceivedFromUpper:vector(packetBytes) ETV
attr interpolationmode none
attr title "packets received from upper layer, vector(packetBytes)"
vector 166 Scenario.node[4].wlan[0].mac.dcf.channelAccess.pendingQueue packetPushed:vector(packetBytes) ETV
attr interpolationmode none
attr title "packet pushed, vector(packetBytes)"
vector 167 Scenario.node[4].wlan[0].mac.dcf.channelAccess.pendingQueue queueLength:vector ETV
attr interpolationmode sample-hold
attr source "count(packetPushed) - count(packetPopped) - count(packetRemoved) - count(packetDropped)"
attr title "queue length, vector"
vector 168 Scenario.node[4].wlan[0].mac.dcf.channelAccess.contention backoffPeriodGenerated:vector ETV
attr interpolationmode none
attr title "backoff periods, vector"
vector 169 Scenario.node[4].wlan[0].mac.dcf.channelAccess.contention backoffActive:vector ETV
attr interpolationmode sample-hold
attr source count(backoffStarted)-count(backoffStopped)
attr title "backoff active, vector"
vector 170 Scenario.node[4].udp packetReceived:vector(packetBytes) ETV
attr interpolationmode none
attr source packetReceived
attr title "packets received, vector(packetBytes)"
vector 171 Scenario.node[4].udp passedUpPk:vector(count) ETV
attr interpolationmode none
attr source packetSentToUpper
attr title "packets passed up, vector(count)"
vector 172 Scenario.node[4].wlan[0].mac.dcf.channelAccess.pendingQueue packetPopped:vector(packetBytes) ETV
attr interpolationmode none
attr title "packet popped, vector(packetBytes)"
vector 173 Scenario.node[4].wlan[0].mac.dcf.channelAccess.pendingQueue queueingTime:vector ETV
attr interpolationmode none
attr source queueingTime(packetPopped)
attr title "queueing times, vector"
attr unit s
vector 174 Scenario.node[4].wlan[0].mac.dcf.channelAccess.inProgressFrames queueLength:vector ETV
attr interpolationmode sample-hold
attr source "count(packetEnqueued) - count(packetDequeued)"
attr title "queue length, vector"
vector 175 Scenario.node[4].wlan[0].mac.dcf datarateSelected:vector ETV
attr interpolationmode none
attr title "datarates selected, vector"
vector 176 Scenario.node[4].wlan[0].mac packetSentToLower:vector(packetBytes) ETV
attr interpolationmode none
attr title "packets sent to lower layer, vector(packetBytes)"
vector 177 Scenario.node[4].wlan[0].mac.dcf frameSequenceActive:vector ETV
attr interpolationmode sample-hold
attr source count(frameSequenceStarted)-count(frameSequenceFinished)
attr title "frame sequence active, vector"
vector 178 Scenario.node[4].wlan[0].radio transmissionState:vector ETV
attr interpolationmode sample-hold
attr source transmissionStateChanged
attr title "Radio transmission state, vector"
vector 179 Scenario.node[4].wlan[0].mac.dcf packetSentToPeer:vector(packetBytes) ETV
attr interpolationmode none
attr title "packets sent, vector(packetBytes)"
vector 180 Scenario.node[4].wlan[0].mac.dcf packetSentToPeerMulticast:vector(packetBytes) ETV
attr interpolationmode none
attr source ieee80211Multicast(packetSentToPeer)
attr title "packets sent: multicast, vector(packetBytes)"
vector 181 Scenario.node[4].wlan[0].mac.dcf packetSentToPeerWithoutRetry:vector(packetBytes) ETV
attr interpolationmode none
attr source ieee80211NotRetry(packetSentToPeer)
attr title "packets sent: without retry, vector(packetBytes)"
vector 182 Scenario.node[4].wlan[0].mac.dcf.channelAccess.inProgressFrames queueingTime:vector ETV
attr interpolationmode none
attr source queueingTime(packetDequeued)
attr title "queueing times, vector"
vector 183 Scenario.node[5].wlan[0].radio radioMode:vector ETV
attr interpolationmode sample-hold
attr source radioModeChanged
attr title "Radio mode, vector"
vector 184 Scenario.node[5].wlan[0].radio radioChannel:vector ETV
attr interpolationmode sample-hold
attr source radioChannelChanged
attr title "Radio channel, vector"
vector 185 Scenario.node[5].wlan[0].radio receptionState:vector ETV
attr interpolationmode sample-hold
attr source receptionStateChanged
attr title "Radio reception state, vector"
vector 186 Scenario.node[5].wlan[0].mac.dcf.recoveryProcedure contentionWindowChanged:vector ETV
attr interpolationmode sample-hold
attr title "contention window, vector"
vector 187 Scenario.node[6].wlan[0].radio radioMode:vector ETV
attr interpolationmode sample-hold
attr source radioModeChanged
attr title "Radio mode, vector"
vector 188 Scenario.node[6].wlan[0].radio radioChannel:vector ETV
attr interpolationmode sample-hold
attr source radioChannelChanged
attr title "Radio channel, vector"
vector 189 Scenario.node[6].wlan[0].radio receptionState:vector ETV
attr interpolationmode sample-hold
attr source receptionStateChanged
attr title "Radio reception state, vector"
vector 190 Scenario.node[6].wlan[0].mac.dcf.recoveryProcedure contentionWindowChanged:vector ETV
attr interpolationmode sample-hold
attr title "contention window, vector"
vector 191 Scenario.node[5].cache requestsReceived:vector ETV
attr interpolationmode none
attr source receive
attr title "requests received, vector"
vector 192 Scenario.node[5].cache hitRate:vector ETV
attr interpolationmode none
attr source hitRate
attr title "hit rate, vector"
vector 193 Scenario.node[5].dataServer requestsReceived:vector ETV
attr interpolationmode none
attr source receive
attr title "requests received, vector"
vector 194 Scenario.node[5].app[0] packetReceived:vector(packetBytes) ETV
attr interpolationmode none
attr source packetReceived
attr title "packets received, vector(packetBytes)"
vector 195 Scenario.node[5].app[0] throughput:vector ETV
attr source throughput(packetReceived)
attr title "throughput, vector"
attr unit bps
vector 196 Scenario.node[5].app[0] RequestReceiveTime:vector ETV
attr interpolationmode none
attr source receiveTime
attr title "request time, vector"
21	119	10.134	540
21	192	15.134	540
21	402	30.176	540
21	689	43.246424565575	540
21	742	45.149	540
21	890	50.152	540
22	119	10.134	540
22	192	15.134	540
22	402	30.176	540
22	689	43.246424565575	540
22	742	45.149	540
22	890	50.152	540
150	675	43.188424565575	570
150	849	48.196424129358	570
34	126	10.134	570
34	199	15.134	570
34	409	30.176	570
34	696	43.246424565575	570
34	749	45.149	570
34	897	50.152	570
23	122	10.134	542
23	195	15.134	542
23	405	30.176	542
23	692	43.246424565575	542
23	745	45.149	542
23	893	50.152	542
154	675	43.188424565575	542
154	849	48.196424129358	542
153	675	43.188424565575	570
153	849	48.196424129358	570
152	675	43.188424565575	570
152	849	48.196424129358	570
151	675	43.188424565575	570
151	849	48.196424129358	570
39	130	10.134424	570
39	203	15.134424	570
39	414	30.176424	570
39	703	43.246848565575	570
39	756	45.149424	570
39	905	50.152424	570
38	130	10.134424	570
38	203	15.134424	570
38	414	30.176424	570
38	703	43.246848565575	570
38	756	45.149424	570
38	905	50.152424	570
37	130	10.134424	570
37	203	15.134424	570
37	414	30.176424	570
37	703	43.246848565575	570
37	756	45.149424	570
37	905	50.152424	570
35	126	10.134	1
35	130	10.134424	0
35	199	15.134	1
35	203	15.134424	0
35	409	30.176	1
35	414	30.176424	0
35	696	43.246424565575	1
35	703	43.246848565575	0
35	749	45.149	1
35	756	45.149424	0
35	897	50.152	1
35	905	50.152424	0
33	126	10.134	12000000
33	199	15.134	12000000
33	409	30.176	12000000
33	696	43.246424565575	12000000
33	749	45.149	12000000
33	897	50.152	12000000
31	126	10.134	0
31	199	15.134	0
31	409	30.176	0
31	696	43.246424565575	0
31	749	45.149	0
31	897	50.152	0
30	126	10.134	570
30	199	15.134	570
30	409	30.176	570
30	696	43.246424565575	570
30	749	45.149	570
30	897	50.152	570
24	122	10.134	570
24	195	15.134	570
24	405	30.176	570
24	692	43.246424565575	570
24	745	45.149	570
24	893	50.152	570
25	122	10.134	1
25	126	10.134	0
25	195	15.134	1
25	199	15.134	0
25	405	30.176	1
25	409	30.176	0
25	692	43.246424565575	1
25	696	43.246424565575	0
25	745	45.149	1
25	749	45.149	0
25	893	50.152	1
25	897	50.152	0
40	130	10.134424	0.000424
40	203	15.134424	0.000424
40	414	30.176424	0.000424
40	703	43.246848565575	0.000424
40	756	45.149424	0.000424
40	905	50.152424	0.000424
32	126	10.134	1
32	130	10.134424	0
32	199	15.134	1
32	203	15.134424	0
32	409	30.176	1
32	414	30.176424	0
32	696	43.246424565575	1
32	703	43.246848565575	0
32	749	45.149	1
32	756	45.149424	0
32	897	50.152	1
32	905	50.152424	0
27	122	10.134	1
27	125	10.134	0
27	195	15.134	1
27	198	15.134	0
27	405	30.176	1
27	408	30.176	0
27	692	43.246424565575	1
27	695	43.246424565575	0
27	745	45.149	1
27	748	45.149	0
27	893	50.152	1
27	896	50.152	0
26	122	10.134	3
26	195	15.134	7
26	405	30.176	4
26	692	43.246424565575	14
26	745	45.149	8
26	893	50.152	9
9	56	5.1	15
36	127	10.134	1
36	128	10.134	2
36	130	10.134424	1
36	131	10.134424	0
36	200	15.134	1
36	201	15.134	2
36	203	15.134424	1
36	204	15.134424	0
36	410	30.176	1
36	411	30.176	2
36	414	30.176424	1
36	415	30.176424	0
36	697	43.246424565575	1
36	698	43.246424565575	2
36	703	43.246848565575	1
36	704	43.246848565575	0
36	750	45.149	1
36	751	45.149	2
36	756	45.149424	1
36	757	45.149424	0
36	898	50.152	1
36	899	50.152	2
36	905	50.152424	1
36	906	50.152424	0
8	56	5.1	1
8	127	10.134	0
8	131	10.134424	1
8	200	15.134	0
8	204	15.134424	1
8	410	30.176	0
8	415	30.176424	1
8	668	43.188000565575	3
8	674	43.188424565575	1
8	697	43.246424565575	0
8	704	43.246848565575	1
8	750	45.149	0
8	757	45.149424	1
8	842	48.196000129358	3
8	848	48.196424129358	1
8	898	50.152	0
8	906	50.152424	1
6	56	5.1	0
6	56	5.1	0
6	56	5.1	2
6	127	10.134	3
6	131	10.134424	2
6	200	15.134	3
6	204	15.134424	2
6	410	30.176	3
6	415	30.176424	2
6	697	43.246424565575	3
6	704	43.246848565575	2
6	750	45.149	3
6	757	45.149424	2
6	898	50.152	3
6	906	50.152424	2
7	56	5.1	3
28	123	10.134	520
28	196	15.134	520
28	406	30.176	520
28	678	43.188424565575	520
28	693	43.246424565575	520
28	746	45.149	520
28	852	48.196424129358	520
28	894	50.152	520
20	117	10.134	520
20	190	15.134	520
20	400	30.176	520
20	687	43.246424565575	520
20	740	45.149	520
20	888	50.152	520
29	123	10.134	1
29	196	15.134	2
29	406	30.176	3
29	678	43.188424565575	4
29	693	43.246424565575	5
29	746	45.149	6
29	852	48.196424129358	7
29	894	50.152	8
67	282	20.102	0.0020000000000024
67	341	25.11	0.010000000000002
67	475	35.1	0
67	616	40.147	0.046999999999997
67	1036	55.1	0
18	116	0.1	0
18	116	0.2	0
18	116	0.3	0
18	116	0.4	0
18	116	0.5	0
18	116	0.6	0
18	116	0.7	0
18	116	0.8	0
18	116	0.9	0
18	116	1	0
18	116	1.1	0
18	116	1.2	0
18	116	1.3	0
18	116	1.4	0
18	116	1.5	0
18	116	1.6	0
18	116	1.7	0
18	116	1.8	0
18	116	1.9	0
18	116	2	0
18	116	2.1	0
18	116	2.2	0
18	116	2.3	0
18	116	2.4	0
18	116	2.5	0
18	116	2.6	0
18	116	2.7	0
18	116	2.8	0
18	116	2.9	0
18	116	3	0
18	116	3.1	0
18	116	3.2	0
18	116	3.3	0
18	116	3.4	0
18	116	3.5	0
18	116	3.6	0
18	116	3.7	0
18	116	3.8	0
18	116	3.9	0
18	116	4	0
18	116	4.1	0
18	116	4.2	0
18	116	4.3	0
18	116	4.4	0
18	116	4.5	0
18	116	4.6	0
18	116	4.7	0
18	116	4.8	0
18	116	4.9	0
18	116	5	0
18	116	5.1	0
18	116	5.2	0
18	116	5.3	0
18	116	5.4	0
18	116	5.5	0
18	116	5.6	0
18	116	5.7	0
18	116	5.8	0
18	116	5.9	0
18	116	6	0
18	116	6.1	0
18	116	6.2	0
18	116	6.3	0
18	116	6.4	0
18	116	6.5	0
18	116	6.6	0
18	116	6.7	0
18	116	6.8	0
18	116	6.9	0
18	116	7	0
18	116	7.1	0
18	116	7.2	0
18	116	7.3	0
18	116	7.4	0
18	116	7.5	0
18	116	7.6	0
18	116	7.7	0
18	116	7.8	0
18	116	7.9	0
18	116	8	0
18	116	8.1	0
18	116	8.2	0
18	116	8.3	0
18	116	8.4	0
18	116	8.5	0
18	116	8.6	0
18	116	8.7	0
18	116	8.8	0
18	116	8.9	0
18	116	9	0
18	116	9.1	0
18	116	9.2	0
18	116	9.3	0
18	116	9.4	0
18	116	9.5	0
18	116	9.6	0
18	116	9.7	0
18	116	9.8	0
18	116	9.9	0
18	116	10	0
18	116	10.1	0
18	189	10.2	81920
18	189	10.3	0
18	189	10.4	0
18	189	10.5	0
18	189	10.6	0
18	189	10.7	0
18	189	10.8	0
18	189	10.9	0
18	189	11	0
18	189	11.1	0
18	189	11.2	0
18	189	11.3	0
18	189	11.4	0
18	189	11.5	0
18	189	11.6	0
18	189	11.7	0
18	189	11.8	0
18	189	11.9	0
18	189	12	0
18	189	12.1	0
18	189	12.2	0
18	189	12.3	0
18	189	12.4	0
18	189	12.5	0
18	189	12.6	0
18	189	12.7	0
18	189	12.8	0
18	189	12.9	0
18	189	13	0
18	189	13.1	0
18	189	13.2	0
18	189	13.3	0
18	189	13.4	0
18	189	13.5	0
18	189	13.6	0
18	189	13.7	0
18	189	13.8	0
18	189	13.9	0
18	189	14	0
18	189	14.1	0
18	189	14.2	0
18	189	14.3	0
18	189	14.4	0
18	189	14.5	0
18	189	14.6	0
18	189	14.7	0
18	189	14.8	0
18	189	14.9	0
18	189	15	0
18	189	15.1	0
18	282	15.2	81920
18	282	15.3	0
18	282	15.4	0
18	282	15.5	0
18	282	15.6	0
18	282	15.7	0
18	282	15.8	0
18	282	15.9	0
18	282	16	0
18	282	16.1	0
18	282	16.2	0
18	282	16.3	0
18	282	16.4	0
18	282	16.5	0
18	282	16.6	0
18	282	16.7	0
18	282	16.8	0
18	282	16.9	0
18	282	17	0
18	282	17.1	0
18	282	17.2	0
18	282	17.3	0
18	282	17.4	0
18	282	17.5	0
18	282	17.6	0
18	282	17.7	0
18	282	17.8	0
18	282	17.9	0
18	282	18	0
18	282	18.1	0
18	282	18.2	0
18	282	18.3	0
18	282	18.4	0
18	282	18.5	0
18	282	18.6	0
18	282	18.7	0
18	282	18.8	0
18	282	18.9	0
18	282	19	0
18	282	19.1	0
18	282	19.2	0
18	282	19.3	0
18	282	19.4	0
18	282	19.5	0
18	282	19.6	0
18	282	19.7	0
18	282	19.8	0
18	282	19.9	0
18	282	20	0
18	282	20.1	0
18	341	20.2	40960
18	341	20.3	0
18	341	20.4	0
18	341	20.5	0
18	341	20.6	0
18	341	20.7	0
18	341	20.8	0
18	341	20.9	0
18	341	21	0
18	341	21.1	0
18	341	21.2	0
18	341	21.3	0
18	341	21.4	0
18	341	21.5	0
18	341	21.6	0
18	341	21.7	0
18	341	21.8	0
18	341	21.9	0
18	341	22	0
18	341	22.1	0
18	341	22.2	0
18	341	22.3	0
18	341	22.4	0
18	341	22.5	0
18	341	22.6	0
18	341	22.7	0
18	341	22.8	0
18	341	22.9	0
18	341	23	0
18	341	23.1	0
18	341	23.2	0
18	341	23.3	0
18	341	23.4	0
18	341	23.5	0
18	341	23.6	0
18	341	23.7	0
18	341	23.8	0
18	341	23.9	0
18	341	24	0
18	341	24.1	0
18	341	24.2	0
18	341	24.3	0
18	341	24.4	0
18	341	24.5	0
18	341	24.6	0
18	341	24.7	0
18	341	24.8	0
18	341	24.9	0
18	341	25	0
18	341	25.1	0
18	399	25.2	40960
18	399	25.3	0
18	399	25.4	0
18	399	25.5	0
18	399	25.6	0
18	399	25.7	0
18	399	25.8	0
18	399	25.9	0
18	399	26	0
18	399	26.1	0
18	399	26.2	0
18	399	26.3	0
18	399	26.4	0
18	399	26.5	0
18	399	26.6	0
18	399	26.7	0
18	399	26.8	0
18	399	26.9	0
18	399	27	0
18	399	27.1	0
18	399	27.2	0
18	399	27.3	0
18	399	27.4	0
18	399	27.5	0
18	399	27.6	0
18	399	27.7	0
18	399	27.8	0
18	399	27.9	0
18	399	28	0
18	399	28.1	0
18	399	28.2	0
18	399	28.3	0
18	399	28.4	0
18	399	28.5	0
18	399	28.6	0
18	399	28.7	0
18	399	28.8	0
18	399	28.9	0
18	399	29	0
18	399	29.1	0
18	399	29.2	0
18	399	29.3	0
18	399	29.4	0
18	399	29.5	0
18	399	29.6	0
18	399	29.7	0
18	399	29.8	0
18	399	29.9	0
18	399	30	0
18	399	30.1	0
18	616	30.2	81920
18	616	30.3	0
18	616	30.4	0
18	616	30.5	0
18	616	30.6	0
18	616	30.7	0
18	616	30.8	0
18	616	30.9	0
18	616	31	0
18	616	31.1	0
18	616	31.2	0
18	616	31.3	0
18	616	31.4	0
18	616	31.5	0
18	616	31.6	0
18	616	31.7	0
18	616	31.8	0
18	616	31.9	0
18	616	32	0
18	616	32.1	0
18	616	32.2	0
18	616	32.3	0
18	616	32.4	0
18	616	32.5	0
18	616	32.6	0
18	616	32.7	0
18	616	32.8	0
18	616	32.9	0
18	616	33	0
18	616	33.1	0
18	616	33.2	0
18	616	33.3	0
18	616	33.4	0
18	616	33.5	0
18	616	33.6	0
18	616	33.7	0
18	616	33.8	0
18	616	33.9	0
18	616	34	0
18	616	34.1	0
18	616	34.2	0
18	616	34.3	0
18	616	34.4	0
18	616	34.5	0
18	616	34.6	0
18	616	34.7	0
18	616	34.8	0
18	616	34.9	0
18	616	35	0
18	616	35.1	0
18	616	35.2	0
18	616	35.3	0
18	616	35.4	0
18	616	35.5	0
18	616	35.6	0
18	616	35.7	0
18	616	35.8	0
18	616	35.9	0
18	616	36	0
18	616	36.1	0
18	616	36.2	0
18	616	36.3	0
18	616	36.4	0
18	616	36.5	0
18	616	36.6	0
18	616	36.7	0
18	616	36.8	0
18	616	36.9	0
18	616	37	0
18	616	37.1	0
18	616	37.2	0
18	616	37.3	0
18	616	37.4	0
18	616	37.5	0
18	616	37.6	0
18	616	37.7	0
18	616	37.8	0
18	616	37.9	0
18	616	38	0
18	616	38.1	0
18	616	38.2	0
18	616	38.3	0
18	616	38.4	0
18	616	38.5	0
18	616	38.6	0
18	616	38.7	0
18	616	38.8	0
18	616	38.9	0
18	616	39	0
18	616	39.1	0
18	616	39.2	0
18	616	39.3	0
18	616	39.4	0
18	616	39.5	0
18	616	39.6	0
18	616	39.7	0
18	616	39.8	0
18	616	39.9	0
18	616	40	0
18	616	40.1	0
18	679	40.2	40960
18	679	40.3	0
18	679	40.4	0
18	679	40.5	0
18	679	40.6	0
18	679	40.7	0
18	679	40.8	0
18	679	40.9	0
18	679	41	0
18	679	41.1	0
18	679	41.2	0
18	679	41.3	0
18	679	41.4	0
18	679	41.5	0
18	679	41.6	0
18	679	41.7	0
18	679	41.8	0
18	679	41.9	0
18	679	42	0
18	679	42.1	0
18	679	42.2	0
18	679	42.3	0
18	679	42.4	0
18	679	42.5	0
18	679	42.6	0
18	679	42.7	0
18	679	42.8	0
18	679	42.9	0
18	679	43	0
18	679	43.1	0
18	686	43.2	40960
18	739	43.3	81920
18	739	43.4	0
18	739	43.5	0
18	739	43.6	0
18	739	43.7	0
18	739	43.8	0
18	739	43.9	0
18	739	44	0
18	739	44.1	0
18	739	44.2	0
18	739	44.3	0
18	739	44.4	0
18	739	44.5	0
18	739	44.6	0
18	739	44.7	0
18	739	44.8	0
18	739	44.9	0
18	739	45	0
18	739	45.1	0
18	853	45.2	81920
18	853	45.3	0
18	853	45.4	0
18	853	45.5	0
18	853	45.6	0
18	853	45.7	0
18	853	45.8	0
18	853	45.9	0
18	853	46	0
18	853	46.1	0
18	853	46.2	0
18	853	46.3	0
18	853	46.4	0
18	853	46.5	0
18	853	46.6	0
18	853	46.7	0
18	853	46.8	0
18	853	46.9	0
18	853	47	0
18	853	47.1	0
18	853	47.2	0
18	853	47.3	0
18	853	47.4	0
18	853	47.5	0
18	853	47.6	0
18	853	47.7	0
18	853	47.8	0
18	853	47.9	0
18	853	48	0
18	853	48.1	0
18	860	48.2	40960
18	887	48.3	40960
18	887	48.4	0
18	887	48.5	0
18	887	48.6	0
18	887	48.7	0
18	887	48.8	0
18	887	48.9	0
18	887	49	0
18	887	49.1	0
18	887	49.2	0
18	887	49.3	0
18	887	49.4	0
18	887	49.5	0
18	887	49.6	0
18	887	49.7	0
18	887	49.8	0
18	887	49.9	0
18	887	50	0
18	887	50.1	0
18	1047	50.2	81920
18	1047	50.3	0
18	1047	50.4	0
18	1047	50.5	0
18	1047	50.6	0
18	1047	50.7	0
18	1047	50.8	0
18	1047	50.9	0
18	1047	51	0
18	1047	51.1	0
18	1047	51.2	0
18	1047	51.3	0
18	1047	51.4	0
18	1047	51.5	0
18	1047	51.6	0
18	1047	51.7	0
18	1047	51.8	0
18	1047	51.9	0
18	1047	52	0
18	1047	52.1	0
18	1047	52.2	0
18	1047	52.3	0
18	1047	52.4	0
18	1047	52.5	0
18	1047	52.6	0
18	1047	52.7	0
18	1047	52.8	0
18	1047	52.9	0
18	1047	53	0
18	1047	53.1	0
18	1047	53.2	0
18	1047	53.3	0
18	1047	53.4	0
18	1047	53.5	0
18	1047	53.6	0
18	1047	53.7	0
18	1047	53.8	0
18	1047	53.9	0
18	1047	54	0
18	1047	54.1	0
18	1047	54.2	0
18	1047	54.3	0
18	1047	54.4	0
18	1047	54.5	0
18	1047	54.6	0
18	1047	54.7	0
18	1047	54.8	0
18	1047	54.9	0
18	1047	55	0
18	1047	55.1	0
18	1047	55.2	0
18	1047	55.3	0
18	1047	55.4	0
18	1047	55.5	0
18	1047	55.6	0
18	1047	55.7	0
18	1047	55.8	0
18	1047	55.9	0
18	1047	56	0
18	1047	56.1	0
17	116	10.134	512
17	124	10.134	512
17	189	15.134	512
17	197	15.134	512
17	282	20.102	512
17	341	25.11	512
17	399	30.176	512
17	407	30.176	512
17	616	40.147	512
17	679	43.188424565575	512
17	686	43.246424565575	512
17	694	43.246424565575	512
17	739	45.149	512
17	747	45.149	512
17	853	48.196424129358	512
17	860	48.286424129358	512
17	887	50.152	512
17	895	50.152	512
19	116	10.134	512
19	189	15.134	512
19	399	30.176	512
19	686	43.246424565575	512
19	739	45.149	512
19	887	50.152	512
15	112	10.1	0
15	185	15.1	0
15	278	20.1	0
15	337	25.1	0
15	396	30.1	0
15	475	35.1	0.16666667163372
15	611	40.1	0.14285714924335
15	679	43.188424565575	0.125
15	734	45.1	0.11111111193895
15	853	48.196424129358	0.10000000149012
15	883	50.1	0.090909093618393
15	1036	55.1	0.16666667163372
79	475	35.1	1
79	1036	55.1	2
14	112	10.1	1
14	185	15.1	2
14	278	20.1	3
14	337	25.1	4
14	396	30.1	5
14	475	35.1	6
14	611	40.1	7
14	679	43.188424565575	8
14	734	45.1	9
14	853	48.196424129358	10
14	883	50.1	11
14	1036	55.1	12
16	115	10.1	1
16	188	15.1	2
16	281	20.1	3
16	340	25.1	4
16	398	30.1	5
16	614	40.1	6
16	680	43.188424565575	7
16	737	45.1	8
16	854	48.196424129358	9
16	886	50.1	10
vector 197 Scenario.node[6].wlan[0].mac packetReceivedFromLower:vector(packetBytes) ETV
attr interpolationmode none
attr title "packets received from lower layer, vector(packetBytes)"
vector 198 Scenario.node[6].wlan[0].mac.dcf packetReceivedFromPeer:vector(packetBytes) ETV
attr interpolationmode none
attr title "packets received, vector(packetBytes)"
vector 199 Scenario.node[6].wlan[0].mac.dcf packetReceivedFromPeerMulticast:vector(packetBytes) ETV
attr interpolationmode none
attr source ieee80211Multicast(packetReceivedFromPeer)
attr title "packets received: multicast, vector(packetBytes)"
vector 200 Scenario.node[6].wlan[0].mac.dcf packetReceivedFromPeerWithoutRetry:vector(packetBytes) ETV
attr interpolationmode none
attr source ieee80211NotRetry(packetReceivedFromPeer)
attr title "packets received: without retry, vector(packetBytes)"
vector 201 Scenario.node[6].wlan[0].mac packetSentToUpper:vector(packetBytes) ETV
attr interpolationmode none
attr title "packets sent to upper layer, vector(packetBytes)"
vector 202 Scenario.node[6].udp packetReceived:vector(packetBytes) ETV
attr interpolationmode none
attr source packetReceived
attr title "packets received, vector(packetBytes)"
vector 203 Scenario.node[6].udp passedUpPk:vector(count) ETV
attr interpolationmode none
attr source packetSentToUpper
attr title "packets passed up, vector(count)"
vector 204 Scenario.node[6].app[0] packetReceived:vector(packetBytes) ETV
attr interpolationmode none
attr source packetReceived
attr title "packets received, vector(packetBytes)"
vector 205 Scenario.node[6].app[0] throughput:vector ETV
attr source throughput(packetReceived)
attr title "throughput, vector"
attr unit bps
vector 206 Scenario.node[6].cache requestsReceived:vector ETV
attr interpolationmode none
attr source receive
attr title "requests received, vector"
vector 207 Scenario.node[6].cache hitRate:vector ETV
attr interpolationmode none
attr source hitRate
attr title "hit rate, vector"
vector 208 Scenario.node[6].dataServer requestsReceived:vector ETV
attr interpolationmode none
attr source receive
attr title "requests received, vector"
vector 209 Scenario.node[6].app[0] packetSent:vector(packetBytes) ETV
attr interpolationmode none
attr source packetSent
attr title "packets sent, vector(packetBytes)"
vector 210 Scenario.node[6].udp packetSent:vector(packetBytes) ETV
attr interpolationmode none
attr source packetSent
attr title "packets sent, vector(packetBytes)"
vector 211 Scenario.node[6].lo[0].lo rcvdPkFromHl:vector(packetBytes) ETV
attr interpolationmode none
attr source packetReceivedFromUpper
attr title "packets received from higher layer, vector(packetBytes)"
vector 212 Scenario.node[6].lo[0].lo passedUpPk:vector(packetBytes) ETV
attr interpolationmode none
attr source packetSentToUpper
attr title "packets passed to higher layer, vector(packetBytes)"
vector 213 Scenario.node[6].wlan[0].mac packetReceivedFromUpper:vector(packetBytes) ETV
attr interpolationmode none
attr title "packets received from upper layer, vector(packetBytes)"
vector 214 Scenario.node[6].wlan[0].mac.dcf.channelAccess.pendingQueue packetPushed:vector(packetBytes) ETV
attr interpolationmode none
attr title "packet pushed, vector(packetBytes)"
vector 215 Scenario.node[6].wlan[0].mac.dcf.channelAccess.pendingQueue queueLength:vector ETV
attr interpolationmode sample-hold
attr source "count(packetPushed) - count(packetPopped) - count(packetRemoved) - count(packetDropped)"
attr title "queue length, vector"
vector 216 Scenario.node[6].wlan[0].mac.dcf.channelAccess.contention backoffPeriodGenerated:vector ETV
attr interpolationmode none
attr title "backoff periods, vector"
vector 217 Scenario.node[6].wlan[0].mac.dcf.channelAccess.contention backoffActive:vector ETV
attr interpolationmode sample-hold
attr source count(backoffStarted)-count(backoffStopped)
attr title "backoff active, vector"
vector 218 Scenario.node[6].wlan[0].mac.dcf.channelAccess.pendingQueue packetPopped:vector(packetBytes) ETV
attr interpolationmode none
attr title "packet popped, vector(packetBytes)"
vector 219 Scenario.node[6].wlan[0].mac.dcf.channelAccess.pendingQueue queueingTime:vector ETV
attr interpolationmode none
attr source queueingTime(packetPopped)
attr title "queueing times, vector"
attr unit s
vector 220 Scenario.node[6].wlan[0].mac.dcf.channelAccess.inProgressFrames queueLength:vector ETV
attr interpolationmode sample-hold
attr source "count(packetEnqueued) - count(packetDequeued)"
attr title "queue length, vector"
vector 221 Scenario.node[6].wlan[0].mac.dcf datarateSelected:vector ETV
attr interpolationmode none
attr title "datarates selected, vector"
vector 222 Scenario.node[6].wlan[0].mac packetSentToLower:vector(packetBytes) ETV
attr interpolationmode none
attr title "packets sent to lower layer, vector(packetBytes)"
vector 223 Scenario.node[6].wlan[0].mac.dcf frameSequenceActive:vector ETV
attr interpolationmode sample-hold
attr source count(frameSequenceStarted)-count(frameSequenceFinished)
attr title "frame sequence active, vector"
vector 224 Scenario.node[6].wlan[0].radio transmissionState:vector ETV
attr interpolationmode sample-hold
attr source transmissionStateChanged
attr title "Radio transmission state, vector"
vector 225 Scenario.node[6].wlan[0].mac.dcf packetSentToPeer:vector(packetBytes) ETV
attr interpolationmode none
attr title "packets sent, vector(packetBytes)"
vector 226 Scenario.node[6].wlan[0].mac.dcf packetSentToPeerMulticast:vector(packetBytes) ETV
attr interpolationmode none
attr source ieee80211Multicast(packetSentToPeer)
attr title "packets sent: multicast, vector(packetBytes)"
vector 227 Scenario.node[6].wlan[0].mac.dcf packetSentToPeerWithoutRetry:vector(packetBytes) ETV
attr interpolationmode none
attr source ieee80211NotRetry(packetSentToPeer)
attr title "packets sent: without retry, vector(packetBytes)"
vector 228 Scenario.node[6].wlan[0].mac.dcf.channelAccess.inProgressFrames queueingTime:vector ETV
attr interpolationmode none
attr source queueingTime(packetDequeued)
attr title "queueing times, vector"
vector 229 Scenario.node[6].app[0] RequestReceiveTime:vector ETV
attr interpolationmode none
attr source receiveTime
attr title "request time, vector"
vector 230 Scenario.node[5].app[0] packetSent:vector(packetBytes) ETV
attr interpolationmode none
attr source packetSent
attr title "packets sent, vector(packetBytes)"
vector 231 Scenario.node[5].udp packetSent:vector(packetBytes) ETV
attr interpolationmode none
attr source packetSent
attr title "packets sent, vector(packetBytes)"
vector 232 Scenario.node[5].lo[0].lo rcvdPkFromHl:vector(packetBytes) ETV
attr interpolationmode none
attr source packetReceivedFromUpper
attr title "packets received from higher layer, vector(packetBytes)"
vector 233 Scenario.node[5].lo[0].lo passedUpPk:vector(packetBytes) ETV
attr interpolationmode none
attr source packetSentToUpper
attr title "packets passed to higher layer, vector(packetBytes)"
vector 234 Scenario.node[5].wlan[0].mac packetReceivedFromUpper:vector(packetBytes) ETV
attr interpolationmode none
attr title "packets received from upper layer, vector(packetBytes)"
vector 235 Scenario.node[5].wlan[0].mac.dcf.channelAccess.pendingQueue packetPushed:vector(packetBytes) ETV
attr interpolationmode none
attr title "packet pushed, vector(packetBytes)"
vector 236 Scenario.node[5].wlan[0].mac.dcf.channelAccess.pendingQueue queueLength:vector ETV
attr interpolationmode sample-hold
attr source "count(packetPushed) - count(packetPopped) - count(packetRemoved) - count(packetDropped)"
attr title "queue length, vector"
vector 237 Scenario.node[5].wlan[0].mac.dcf.channelAccess.contention backoffPeriodGenerated:vector ETV
attr interpolationmode none
attr title "backoff periods, vector"
vector 238 Scenario.node[5].wlan[0].mac.dcf.channelAccess.contention backoffActive:vector ETV
attr interpolationmode sample-hold
attr source count(backoffStarted)-count(backoffStopped)
attr title "backoff active, vector"
vector 239 Scenario.node[5].udp packetReceived:vector(packetBytes) ETV
attr interpolationmode none
attr source packetReceived
attr title "packets received, vector(packetBytes)"
vector 240 Scenario.node[5].udp passedUpPk:vector(count) ETV
attr interpolationmode none
attr source packetSentToUpper
attr title "packets passed up, vector(count)"
vector 241 Scenario.node[5].wlan[0].mac.dcf.channelAccess.pendingQueue packetPopped:vector(packetBytes) ETV
attr interpolationmode none
attr title "packet popped, vector(packetBytes)"
vector 242 Scenario.node[5].wlan[0].mac.dcf.channelAccess.pendingQueue queueingTime:vector ETV
attr interpolationmode none
attr source queueingTime(packetPopped)
attr title "queueing times, vector"
attr unit s
vector 243 Scenario.node[5].wlan[0].mac.dcf.channelAccess.inProgressFrames queueLength:vector ETV
attr interpolationmode sample-hold
attr source "count(packetEnqueued) - count(packetDequeued)"
attr title "queue length, vector"
vector 244 Scenario.node[5].wlan[0].mac.dcf datarateSelected:vector ETV
attr interpolationmode none
attr title "datarates selected, vector"
vector 245 Scenario.node[5].wlan[0].mac packetSentToLower:vector(packetBytes) ETV
attr interpolationmode none
attr title "packets sent to lower layer, vector(packetBytes)"
vector 246 Scenario.node[5].wlan[0].mac.dcf frameSequenceActive:vector ETV
attr interpolationmode sample-hold
attr source count(frameSequenceStarted)-count(frameSequenceFinished)
attr title "frame sequence active, vector"
vector 247 Scenario.node[5].wlan[0].radio transmissionState:vector ETV
attr interpolationmode sample-hold
attr source transmissionStateChanged
attr title "Radio transmission state, vector"
vector 248 Scenario.node[5].wlan[0].mac.dcf packetSentToPeer:vector(packetBytes) ETV
attr interpolationmode none
attr title "packets sent, vector(packetBytes)"
vector 249 Scenario.node[5].wlan[0].mac.dcf packetSentToPeerMulticast:vector(packetBytes) ETV
attr interpolationmode none
attr source ieee80211Multicast(packetSentToPeer)
attr title "packets sent: multicast, vector(packetBytes)"
vector 250 Scenario.node[5].wlan[0].mac.dcf packetSentToPeerWithoutRetry:vector(packetBytes) ETV
attr interpolationmode none
attr source ieee80211NotRetry(packetSentToPeer)
attr title "packets sent: without retry, vector(packetBytes)"
vector 251 Scenario.node[5].wlan[0].mac.dcf.channelAccess.inProgressFrames queueingTime:vector ETV
attr interpolationmode none
attr source queueingTime(packetDequeued)
attr title "queueing times, vector"
vector 252 Scenario.node[7].wlan[0].radio radioMode:vector ETV
attr interpolationmode sample-hold
attr source radioModeChanged
attr title "Radio mode, vector"
vector 253 Scenario.node[7].wlan[0].radio radioChannel:vector ETV
attr interpolationmode sample-hold
attr source radioChannelChanged
attr title "Radio channel, vector"
vector 254 Scenario.node[7].wlan[0].radio receptionState:vector ETV
attr interpolationmode sample-hold
attr source receptionStateChanged
attr title "Radio reception state, vector"
vector 255 Scenario.node[7].wlan[0].mac.dcf.recoveryProcedure contentionWindowChanged:vector ETV
attr interpolationmode sample-hold
attr title "contention window, vector"
vector 256 Scenario.node[3].wlan[0].mac packetDrop:vector(packetBytes) ETV
attr interpolationmode none
attr source packetDropped
attr title "packet drops, vector(packetBytes)"
vector 257 Scenario.node[3].wlan[0].mac packetDropIncorrectlyReceived:vector(packetBytes) ETV
attr interpolationmode none
attr source packetDropReasonIsIncorrectlyReceived(packetDropped)
attr title "packet drops: incorrectly received, vector(packetBytes)"
vector 258 Scenario.node[6].wlan[0].mac packetDrop:vector(packetBytes) ETV
attr interpolationmode none
attr source packetDropped
attr title "packet drops, vector(packetBytes)"
vector 259 Scenario.node[6].wlan[0].mac packetDropIncorrectlyReceived:vector(packetBytes) ETV
attr interpolationmode none
attr source packetDropReasonIsIncorrectlyReceived(packetDropped)
attr title "packet drops: incorrectly received, vector(packetBytes)"
vector 260 Scenario.node[3].cache requestsAnswered:vector ETV
attr interpolationmode none
attr source answer
attr title "requests answered, vector"
vector 261 Scenario.node[7].cache requestsReceived:vector ETV
attr interpolationmode none
attr source receive
attr title "requests received, vector"
vector 262 Scenario.node[7].cache hitRate:vector ETV
attr interpolationmode none
attr source hitRate
attr title "hit rate, vector"
vector 263 Scenario.node[7].dataServer requestsReceived:vector ETV
attr interpolationmode none
attr source receive
attr title "requests received, vector"
vector 264 Scenario.node[7].app[0] packetReceived:vector(packetBytes) ETV
attr interpolationmode none
attr source packetReceived
attr title "packets received, vector(packetBytes)"
vector 265 Scenario.node[7].app[0] throughput:vector ETV
attr source throughput(packetReceived)
attr title "throughput, vector"
attr unit bps
vector 266 Scenario.node[7].app[0] RequestReceiveTime:vector ETV
attr interpolationmode none
attr source receiveTime
attr title "request time, vector"
vector 267 Scenario.node[4].wlan[0].mac packetReceivedFromLower:vector(packetBytes) ETV
attr interpolationmode none
attr title "packets received from lower layer, vector(packetBytes)"
vector 268 Scenario.node[4].wlan[0].mac.dcf packetReceivedFromPeer:vector(packetBytes) ETV
attr interpolationmode none
attr title "packets received, vector(packetBytes)"
vector 269 Scenario.node[4].wlan[0].mac.dcf packetReceivedFromPeerMulticast:vector(packetBytes) ETV
attr interpolationmode none
attr source ieee80211Multicast(packetReceivedFromPeer)
attr title "packets received: multicast, vector(packetBytes)"
vector 270 Scenario.node[4].wlan[0].mac.dcf packetReceivedFromPeerWithoutRetry:vector(packetBytes) ETV
attr interpolationmode none
attr source ieee80211NotRetry(packetReceivedFromPeer)
attr title "packets received: without retry, vector(packetBytes)"
vector 271 Scenario.node[4].wlan[0].mac packetSentToUpper:vector(packetBytes) ETV
attr interpolationmode none
attr title "packets sent to upper layer, vector(packetBytes)"
vector 272 Scenario.node[8].wlan[0].radio radioMode:vector ETV
attr interpolationmode sample-hold
attr source radioModeChanged
attr title "Radio mode, vector"
vector 273 Scenario.node[8].wlan[0].radio radioChannel:vector ETV
attr interpolationmode sample-hold
attr source radioChannelChanged
attr title "Radio channel, vector"
vector 274 Scenario.node[8].wlan[0].radio receptionState:vector ETV
attr interpolationmode sample-hold
attr source receptionStateChanged
attr title "Radio reception state, vector"
vector 275 Scenario.node[8].wlan[0].mac.dcf.recoveryProcedure contentionWindowChanged:vector ETV
attr interpolationmode sample-hold
attr title "contention window, vector"
vector 276 Scenario.node[7].cache requestsAnswered:vector ETV
attr interpolationmode none
attr source answer
attr title "requests answered, vector"
vector 277 Scenario.node[8].wlan[0].mac packetReceivedFromLower:vector(packetBytes) ETV
attr interpolationmode none
attr title "packets received from lower layer, vector(packetBytes)"
vector 278 Scenario.node[8].wlan[0].mac.dcf packetReceivedFromPeer:vector(packetBytes) ETV
attr interpolationmode none
attr title "packets received, vector(packetBytes)"
vector 279 Scenario.node[8].wlan[0].mac.dcf packetReceivedFromPeerMulticast:vector(packetBytes) ETV
attr interpolationmode none
attr source ieee80211Multicast(packetReceivedFromPeer)
attr title "packets received: multicast, vector(packetBytes)"
vector 280 Scenario.node[8].wlan[0].mac.dcf packetReceivedFromPeerWithoutRetry:vector(packetBytes) ETV
attr interpolationmode none
attr source ieee80211NotRetry(packetReceivedFromPeer)
attr title "packets received: without retry, vector(packetBytes)"
vector 281 Scenario.node[8].wlan[0].mac packetSentToUpper:vector(packetBytes) ETV
attr interpolationmode none
attr title "packets sent to upper layer, vector(packetBytes)"
vector 282 Scenario.node[8].udp packetReceived:vector(packetBytes) ETV
attr interpolationmode none
attr source packetReceived
attr title "packets received, vector(packetBytes)"
vector 283 Scenario.node[8].udp passedUpPk:vector(count) ETV
attr interpolationmode none
attr source packetSentToUpper
attr title "packets passed up, vector(count)"
vector 284 Scenario.node[8].app[0] packetReceived:vector(packetBytes) ETV
attr interpolationmode none
attr source packetReceived
attr title "packets received, vector(packetBytes)"
vector 285 Scenario.node[8].app[0] throughput:vector ETV
attr source throughput(packetReceived)
attr title "throughput, vector"
attr unit bps
vector 286 Scenario.node[8].cache requestsReceived:vector ETV
attr interpolationmode none
attr source receive
attr title "requests received, vector"
vector 287 Scenario.node[8].cache hitRate:vector ETV
attr interpolationmode none
attr source hitRate
attr title "hit rate, vector"
vector 288 Scenario.node[8].dataServer requestsReceived:vector ETV
attr interpolationmode none
attr source receive
attr title "requests received, vector"
vector 289 Scenario.node[8].app[0] packetSent:vector(packetBytes) ETV
attr interpolationmode none
attr source packetSent
attr title "packets sent, vector(packetBytes)"
vector 290 Scenario.node[8].udp packetSent:vector(packetBytes) ETV
attr interpolationmode none
attr source packetSent
attr title "packets sent, vector(packetBytes)"
vector 291 Scenario.node[8].lo[0].lo rcvdPkFromHl:vector(packetBytes) ETV
attr interpolationmode none
attr source packetReceivedFromUpper
attr title "packets received from higher layer, vector(packetBytes)"
vector 292 Scenario.node[8].lo[0].lo passedUpPk:vector(packetBytes) ETV
attr interpolationmode none
attr source packetSentToUpper
attr title "packets passed to higher layer, vector(packetBytes)"
vector 293 Scenario.node[8].wlan[0].mac packetReceivedFromUpper:vector(packetBytes) ETV
attr interpolationmode none
attr title "packets received from upper layer, vector(packetBytes)"
vector 294 Scenario.node[8].wlan[0].mac.dcf.channelAccess.pendingQueue packetPushed:vector(packetBytes) ETV
attr interpolationmode none
attr title "packet pushed, vector(packetBytes)"
vector 295 Scenario.node[8].wlan[0].mac.dcf.channelAccess.pendingQueue queueLength:vector ETV
attr interpolationmode sample-hold
attr source "count(packetPushed) - count(packetPopped) - count(packetRemoved) - count(packetDropped)"
attr title "queue length, vector"
vector 296 Scenario.node[8].wlan[0].mac.dcf.channelAccess.contention backoffPeriodGenerated:vector ETV
attr interpolationmode none
attr title "backoff periods, vector"
vector 297 Scenario.node[8].wlan[0].mac.dcf.channelAccess.contention backoffActive:vector ETV
attr interpolationmode sample-hold
attr source count(backoffStarted)-count(backoffStopped)
attr title "backoff active, vector"
vector 298 Scenario.node[8].wlan[0].mac.dcf.channelAccess.pendingQueue packetPopped:vector(packetBytes) ETV
attr interpolationmode none
attr title "packet popped, vector(packetBytes)"
vector 299 Scenario.node[8].wlan[0].mac.dcf.channelAccess.pendingQueue queueingTime:vector ETV
attr interpolationmode none
attr source queueingTime(packetPopped)
attr title "queueing times, vector"
attr unit s
vector 300 Scenario.node[8].wlan[0].mac.dcf.channelAccess.inProgressFrames queueLength:vector ETV
attr interpolationmode sample-hold
attr source "count(packetEnqueued) - count(packetDequeued)"
attr title "queue length, vector"
vector 301 Scenario.node[8].wlan[0].mac.dcf datarateSelected:vector ETV
attr interpolationmode none
attr title "datarates selected, vector"
vector 302 Scenario.node[8].wlan[0].mac packetSentToLower:vector(packetBytes) ETV
attr interpolationmode none
attr title "packets sent to lower layer, vector(packetBytes)"
vector 303 Scenario.node[8].wlan[0].mac.dcf frameSequenceActive:vector ETV
attr interpolationmode sample-hold
attr source count(frameSequenceStarted)-count(frameSequenceFinished)
attr title "frame sequence active, vector"
vector 304 Scenario.node[8].wlan[0].radio transmissionState:vector ETV
attr interpolationmode sample-hold
attr source transmissionStateChanged
attr title "Radio transmission state, vector"
vector 305 Scenario.node[8].wlan[0].mac.dcf packetSentToPeer:vector(packetBytes) ETV
attr interpolationmode none
attr title "packets sent, vector(packetBytes)"
vector 306 Scenario.node[8].wlan[0].mac.dcf packetSentToPeerMulticast:vector(packetBytes) ETV
attr interpolationmode none
attr source ieee80211Multicast(packetSentToPeer)
attr title "packets sent: multicast, vector(packetBytes)"
vector 307 Scenario.node[8].wlan[0].mac.dcf packetSentToPeerWithoutRetry:vector(packetBytes) ETV
attr interpolationmode none
attr source ieee80211NotRetry(packetSentToPeer)
attr title "packets sent: without retry, vector(packetBytes)"
vector 308 Scenario.node[8].wlan[0].mac.dcf.channelAccess.inProgressFrames queueingTime:vector ETV
attr interpolationmode none
attr source queueingTime(packetDequeued)
attr title "queueing times, vector"
vector 309 Scenario.node[9].wlan[0].radio radioMode:vector ETV
attr interpolationmode sample-hold
attr source radioModeChanged
attr title "Radio mode, vector"
vector 310 Scenario.node[9].wlan[0].radio radioChannel:vector ETV
attr interpolationmode sample-hold
attr source radioChannelChanged
attr title "Radio channel, vector"
vector 311 Scenario.node[9].wlan[0].radio receptionState:vector ETV
attr interpolationmode sample-hold
attr source receptionStateChanged
attr title "Radio reception state, vector"
vector 312 Scenario.node[9].wlan[0].mac.dcf.recoveryProcedure contentionWindowChanged:vector ETV
attr interpolationmode sample-hold
attr title "contention window, vector"
vector 313 Scenario.node[5].wlan[0].mac packetReceivedFromLower:vector(packetBytes) ETV
attr interpolationmode none
attr title "packets received from lower layer, vector(packetBytes)"
vector 314 Scenario.node[5].wlan[0].mac.dcf packetReceivedFromPeer:vector(packetBytes) ETV
attr interpolationmode none
attr title "packets received, vector(packetBytes)"
vector 315 Scenario.node[5].wlan[0].mac.dcf packetReceivedFromPeerMulticast:vector(packetBytes) ETV
attr interpolationmode none
attr source ieee80211Multicast(packetReceivedFromPeer)
attr title "packets received: multicast, vector(packetBytes)"
vector 316 Scenario.node[5].wlan[0].mac.dcf packetReceivedFromPeerWithoutRetry:vector(packetBytes) ETV
attr interpolationmode none
attr source ieee80211NotRetry(packetReceivedFromPeer)
attr title "packets received: without retry, vector(packetBytes)"
vector 317 Scenario.node[5].wlan[0].mac packetSentToUpper:vector(packetBytes) ETV
attr interpolationmode none
attr title "packets sent to upper layer, vector(packetBytes)"
vector 318 Scenario.node[9].wlan[0].mac packetReceivedFromLower:vector(packetBytes) ETV
attr interpolationmode none
attr title "packets received from lower layer, vector(packetBytes)"
vector 319 Scenario.node[9].wlan[0].mac.dcf packetReceivedFromPeer:vector(packetBytes) ETV
attr interpolationmode none
attr title "packets received, vector(packetBytes)"
vector 320 Scenario.node[9].wlan[0].mac.dcf packetReceivedFromPeerMulticast:vector(packetBytes) ETV
attr interpolationmode none
attr source ieee80211Multicast(packetReceivedFromPeer)
attr title "packets received: multicast, vector(packetBytes)"
vector 321 Scenario.node[9].wlan[0].mac.dcf packetReceivedFromPeerWithoutRetry:vector(packetBytes) ETV
attr interpolationmode none
attr source ieee80211NotRetry(packetReceivedFromPeer)
attr title "packets received: without retry, vector(packetBytes)"
vector 322 Scenario.node[9].wlan[0].mac packetSentToUpper:vector(packetBytes) ETV
attr interpolationmode none
attr title "packets sent to upper layer, vector(packetBytes)"
vector 323 Scenario.node[9].udp packetReceived:vector(packetBytes) ETV
attr interpolationmode none
attr source packetReceived
attr title "packets received, vector(packetBytes)"
vector 324 Scenario.node[9].udp passedUpPk:vector(count) ETV
attr interpolationmode none
attr source packetSentToUpper
attr title "packets passed up, vector(count)"
vector 325 Scenario.node[9].app[0] packetReceived:vector(packetBytes) ETV
attr interpolationmode none
attr source packetReceived
attr title "packets received, vector(packetBytes)"
vector 326 Scenario.node[9].app[0] throughput:vector ETV
attr source throughput(packetReceived)
attr title "throughput, vector"
attr unit bps
vector 327 Scenario.node[9].cache requestsReceived:vector ETV
attr interpolationmode none
attr source receive
attr title "requests received, vector"
vector 328 Scenario.node[9].cache hitRate:vector ETV
attr interpolationmode none
attr source hitRate
attr title "hit rate, vector"
vector 329 Scenario.node[9].dataServer requestsReceived:vector ETV
attr interpolationmode none
attr source receive
attr title "requests received, vector"
vector 330 Scenario.node[9].app[0] packetSent:vector(packetBytes) ETV
attr interpolationmode none
attr source packetSent
attr title "packets sent, vector(packetBytes)"
vector 331 Scenario.node[9].udp packetSent:vector(packetBytes) ETV
attr interpolationmode none
attr source packetSent
attr title "packets sent, vector(packetBytes)"
vector 332 Scenario.node[9].lo[0].lo rcvdPkFromHl:vector(packetBytes) ETV
attr interpolationmode none
attr source packetReceivedFromUpper
attr title "packets received from higher layer, vector(packetBytes)"
vector 333 Scenario.node[9].lo[0].lo passedUpPk:vector(packetBytes) ETV
attr interpolationmode none
attr source packetSentToUpper
attr title "packets passed to higher layer, vector(packetBytes)"
vector 334 Scenario.node[9].wlan[0].mac packetReceivedFromUpper:vector(packetBytes) ETV
attr interpolationmode none
attr title "packets received from upper layer, vector(packetBytes)"
vector 335 Scenario.node[9].wlan[0].mac.dcf.channelAccess.pendingQueue packetPushed:vector(packetBytes) ETV
attr interpolationmode none
attr title "packet pushed, vector(packetBytes)"
vector 336 Scenario.node[9].wlan[0].mac.dcf.channelAccess.pendingQueue queueLength:vector ETV
attr interpolationmode sample-hold
attr source "count(packetPushed) - count(packetPopped) - count(packetRemoved) - count(packetDropped)"
attr title "queue length, vector"
vector 337 Scenario.node[9].wlan[0].mac.dcf.channelAccess.contention backoffPeriodGenerated:vector ETV
attr interpolationmode none
attr title "backoff periods, vector"
vector 338 Scenario.node[9].wlan[0].mac.dcf.channelAccess.contention backoffActive:vector ETV
attr interpolationmode sample-hold
attr source count(backoffStarted)-count(backoffStopped)
attr title "backoff active, vector"
vector 339 Scenario.node[9].wlan[0].mac.dcf.channelAccess.pendingQueue packetPopped:vector(packetBytes) ETV
attr interpolationmode none
attr title "packet popped, vector(packetBytes)"
vector 340 Scenario.node[9].wlan[0].mac.dcf.channelAccess.pendingQueue queueingTime:vector ETV
attr interpolationmode none
attr source queueingTime(packetPopped)
attr title "queueing times, vector"
attr unit s
vector 341 Scenario.node[9].wlan[0].mac.dcf.channelAccess.inProgressFrames queueLength:vector ETV
attr interpolationmode sample-hold
attr source "count(packetEnqueued) - count(packetDequeued)"
attr title "queue length, vector"
vector 342 Scenario.node[9].wlan[0].mac.dcf datarateSelected:vector ETV
attr interpolationmode none
attr title "datarates selected, vector"
vector 343 Scenario.node[9].wlan[0].mac packetSentToLower:vector(packetBytes) ETV
attr interpolationmode none
attr title "packets sent to lower layer, vector(packetBytes)"
vector 344 Scenario.node[9].wlan[0].mac.dcf frameSequenceActive:vector ETV
attr interpolationmode sample-hold
attr source count(frameSequenceStarted)-count(frameSequenceFinished)
attr title "frame sequence active, vector"
vector 345 Scenario.node[9].wlan[0].radio transmissionState:vector ETV
attr interpolationmode sample-hold
attr source transmissionStateChanged
attr title "Radio transmission state, vector"
vector 346 Scenario.node[9].wlan[0].mac.dcf packetSentToPeer:vector(packetBytes) ETV
attr interpolationmode none
attr title "packets sent, vector(packetBytes)"
vector 347 Scenario.node[9].wlan[0].mac.dcf packetSentToPeerMulticast:vector(packetBytes) ETV
attr interpolationmode none
attr source ieee80211Multicast(packetSentToPeer)
attr title "packets sent: multicast, vector(packetBytes)"
vector 348 Scenario.node[9].wlan[0].mac.dcf packetSentToPeerWithoutRetry:vector(packetBytes) ETV
attr interpolationmode none
attr source ieee80211NotRetry(packetSentToPeer)
attr title "packets sent: without retry, vector(packetBytes)"
vector 349 Scenario.node[9].wlan[0].mac.dcf.channelAccess.inProgressFrames queueingTime:vector ETV
attr interpolationmode none
[...]
121	3110	91.4	0
121	3110	91.5	0
121	3110	91.6	0
121	3110	91.7	0
121	3110	91.8	0
121	3110	91.9	0
121	3110	92	0
121	3110	92.1	0
121	3110	92.2	0
121	3110	92.3	0
121	3110	92.4	0
121	3110	92.5	0
121	3110	92.6	0
121	3110	92.7	0
121	3110	92.8	0
121	3110	92.9	0
121	3110	93	0
121	3110	93.1	0
121	3313	93.2	81920
121	3313	93.3	0
121	3313	93.4	0
121	3313	93.5	0
121	3313	93.6	0
121	3313	93.7	0
121	3313	93.8	0
121	3313	93.9	0
121	3313	94	0
121	3313	94.1	0
121	3313	94.2	0
121	3313	94.3	0
121	3313	94.4	0
121	3313	94.5	0
121	3313	94.6	0
121	3313	94.7	0
121	3313	94.8	0
121	3313	94.9	0
121	3313	95	0
121	3313	95.1	0
121	3313	95.2	0
121	3313	95.3	0
121	3313	95.4	0
121	3313	95.5	0
121	3313	95.6	0
121	3313	95.7	0
121	3313	95.8	0
121	3313	95.9	0
121	3313	96	0
121	3313	96.1	0
121	3313	96.2	0
121	3313	96.3	0
121	3313	96.4	0
121	3313	96.5	0
121	3313	96.6	0
121	3313	96.7	0
121	3313	96.8	0
121	3313	96.9	0
121	3313	97	0
121	3313	97.1	0
121	3373	97.2	81920
121	3373	97.3	0
121	3373	97.4	0
121	3373	97.5	0
121	3373	97.6	0
121	3373	97.7	0
121	3373	97.8	0
121	3373	97.9	0
121	3373	98	0
121	3373	98.1	0
121	3492	98.2	122880
121	3567	98.3	40960
121	3567	98.4	0
121	3567	98.5	0
121	3567	98.6	0
121	3567	98.7	0
121	3567	98.8	0
121	3567	98.9	0
121	3567	99	0
121	3567	99.1	0
121	3567	99.2	0
121	3567	99.3	0
121	3567	99.4	0
121	3567	99.5	0
121	3567	99.6	0
121	3567	99.7	0
121	3567	99.8	0
121	3567	99.9	0
121	3567	100	0
121	3567	100.1	0
121	3681	100.2	81920
121	3681	100.3	0
121	3681	100.4	0
121	3681	100.5	0
121	3681	100.6	0
121	3681	100.7	0
121	3681	100.8	0
121	3681	100.9	0
121	3681	101	0
121	3681	101.1	0
121	3681	101.2	0
121	3681	101.3	0
121	3681	101.4	0
121	3681	101.5	0
121	3681	101.6	0
121	3681	101.7	0
121	3681	101.8	0
121	3681	101.9	0
121	3681	102	0
121	3681	102.1	0
121	3753	102.2	81920
121	3753	102.3	0
121	3753	102.4	0
121	3753	102.5	0
121	3753	102.6	0
121	3753	102.7	0
121	3753	102.8	0
121	3753	102.9	0
121	3753	103	0
121	3753	103.1	0
121	3843	103.2	81920
121	3948	103.3	40960
121	3948	103.4	0
121	3948	103.5	0
121	3948	103.6	0
121	3948	103.7	0
121	3948	103.8	0
121	3948	103.9	0
121	3948	104	0
121	3948	104.1	0
121	3948	104.2	0
121	3948	104.3	0
121	3948	104.4	0
121	3948	104.5	0
121	3948	104.6	0
121	3948	104.7	0
121	3948	104.8	0
121	3948	104.9	0
121	3948	105	0
121	3948	105.1	0
121	4037	105.2	81920
121	4037	105.3	0
121	4037	105.4	0
121	4037	105.5	0
121	4037	105.6	0
121	4037	105.7	0
121	4037	105.8	0
121	4037	105.9	0
121	4037	106	0
121	4037	106.1	0
121	4037	106.2	0
121	4037	106.3	0
121	4037	106.4	0
121	4037	106.5	0
121	4037	106.6	0
121	4037	106.7	0
121	4037	106.8	0
121	4037	106.9	0
121	4037	107	0
121	4037	107.1	0
121	4037	107.2	0
121	4037	107.3	0
121	4037	107.4	0
121	4037	107.5	0
121	4037	107.6	0
121	4037	107.7	0
121	4037	107.8	0
121	4037	107.9	0
121	4037	108	0
121	4037	108.1	0
121	4104	108.2	40960
121	4104	108.3	0
121	4104	108.4	0
121	4104	108.5	0
121	4104	108.6	0
121	4104	108.7	0
121	4104	108.8	0
121	4104	108.9	0
121	4104	109	0
121	4104	109.1	0
121	4104	109.2	0
121	4104	109.3	0
121	4104	109.4	0
121	4104	109.5	0
121	4104	109.6	0
121	4104	109.7	0
121	4104	109.8	0
121	4104	109.9	0
121	4104	110	0
121	4104	110.1	0
121	4268	110.2	122880
121	4268	110.3	0
121	4268	110.4	0
121	4268	110.5	0
121	4268	110.6	0
121	4268	110.7	0
121	4268	110.8	0
121	4268	110.9	0
121	4268	111	0
121	4268	111.1	0
121	4268	111.2	0
121	4268	111.3	0
121	4268	111.4	0
121	4268	111.5	0
121	4268	111.6	0
121	4268	111.7	0
121	4268	111.8	0
121	4268	111.9	0
121	4268	112	0
121	4268	112.1	0
121	4268	112.2	0
121	4268	112.3	0
121	4268	112.4	0
121	4268	112.5	0
121	4268	112.6	0
121	4268	112.7	0
121	4268	112.8	0
121	4268	112.9	0
121	4268	113	0
121	4268	113.1	0
121	5374	113.2	163840
121	5374	113.3	0
121	5374	113.4	0
121	5374	113.5	0
121	5374	113.6	0
121	5374	113.7	0
121	5374	113.8	0
121	5374	113.9	0
121	5374	114	0
121	5374	114.1	0
121	5374	114.2	0
121	5374	114.3	0
121	5374	114.4	0
121	5374	114.5	0
121	5374	114.6	0
121	5374	114.7	0
121	5374	114.8	0
121	5374	114.9	0
121	5374	115	0
121	5374	115.1	0
121	5374	115.2	0
121	5374	115.3	0
121	5374	115.4	0
121	5374	115.5	0
121	5374	115.6	0
121	5374	115.7	0
121	5374	115.8	0
121	5374	115.9	0
121	5374	116	0
121	5374	116.1	0
121	5374	116.2	0
121	5374	116.3	0
121	5374	116.4	0
121	5374	116.5	0
121	5374	116.6	0
121	5374	116.7	0
121	5374	116.8	0
121	5374	116.9	0
121	5374	117	0
121	5374	117.1	0
121	5374	117.2	0
121	5374	117.3	0
121	5374	117.4	0
121	5374	117.5	0
121	5374	117.6	0
121	5374	117.7	0
121	5374	117.8	0
121	5374	117.9	0
121	5374	118	0
121	5374	118.1	0
121	5374	118.2	0
121	5374	118.3	0
121	5374	118.4	0
121	5374	118.5	0
121	5374	118.6	0
121	5374	118.7	0
121	5374	118.8	0
121	5374	118.9	0
121	5374	119	0
121	5374	119.1	0
121	5374	119.2	0
121	5374	119.3	0
121	5374	119.4	0
121	5374	119.5	0
121	5374	119.6	0
121	5374	119.7	0
121	5374	119.8	0
121	5374	119.9	0
121	5374	120	0
121	5374	120.1	0
121	5374	120.2	0
121	5374	120.3	0
121	5374	120.4	0
121	5374	120.5	0
121	5374	120.6	0
121	5374	120.7	0
121	5374	120.8	0
121	5374	120.9	0
121	5374	121	0
121	5374	121.1	0
121	5374	121.2	0
121	5374	121.3	0
121	5374	121.4	0
121	5374	121.5	0
121	5374	121.6	0
121	5374	121.7	0
121	5374	121.8	0
121	5374	121.9	0
121	5374	122	0
121	5374	122.1	0
121	5374	122.2	0
121	5374	122.3	0
121	5374	122.4	0
121	5374	122.5	0
121	5374	122.6	0
121	5374	122.7	0
121	5374	122.8	0
121	5374	122.9	0
121	5374	123	0
121	5374	123.1	0
121	5374	123.2	0
121	5374	123.3	0
121	5374	123.4	0
121	5374	123.5	0
121	5374	123.6	0
121	5374	123.7	0
121	5374	123.8	0
121	5374	123.9	0
121	5374	124	0
121	5374	124.1	0
121	5374	124.2	0
121	5374	124.3	0
121	5374	124.4	0
121	5374	124.5	0
121	5374	124.6	0
121	5374	124.7	0
121	5374	124.8	0
121	5374	124.9	0
121	5374	125	0
121	5374	125.1	0
121	5374	125.2	0
121	5374	125.3	0
121	5374	125.4	0
121	5374	125.5	0
121	5374	125.6	0
121	5374	125.7	0
121	5374	125.8	0
121	5374	125.9	0
121	5374	126	0
121	5374	126.1	0
121	5374	126.2	0
121	5374	126.3	0
121	5374	126.4	0
121	5374	126.5	0
121	5374	126.6	0
121	5374	126.7	0
121	5374	126.8	0
121	5374	126.9	0
121	5374	127	0
121	5374	127.1	0
121	5374	127.2	0
121	5374	127.3	0
121	5374	127.4	0
121	5374	127.5	0
121	5374	127.6	0
121	5374	127.7	0
121	5374	127.8	0
121	5374	127.9	0
121	5374	128	0
121	5374	128.1	0
121	5374	128.2	0
121	5374	128.3	0
121	5374	128.4	0
121	5374	128.5	0
121	5374	128.6	0
121	5374	128.7	0
121	5374	128.8	0
121	5374	128.9	0
121	5374	129	0
121	5374	129.1	0
121	5374	129.2	0
121	5374	129.3	0
121	5374	129.4	0
121	5374	129.5	0
121	5374	129.6	0
121	5374	129.7	0
121	5374	129.8	0
121	5374	129.9	0
121	5374	130	0
121	5374	130.1	0
121	5374	130.2	0
121	5374	130.3	0
121	5374	130.4	0
121	5374	130.5	0
121	5374	130.6	0
121	5374	130.7	0
121	5374	130.8	0
121	5374	130.9	0
121	5374	131	0
121	5374	131.1	0
121	5374	131.2	0
121	5374	131.3	0
121	5374	131.4	0
121	5374	131.5	0
121	5374	131.6	0
121	5374	131.7	0
121	5374	131.8	0
121	5374	131.9	0
121	5374	132	0
121	5374	132.1	0
121	5374	132.2	0
121	5374	132.3	0
121	5374	132.4	0
121	5374	132.5	0
121	5374	132.6	0
121	5374	132.7	0
121	5374	132.8	0
121	5374	132.9	0
121	5374	133	0
121	5374	133.1	0
121	5374	133.2	0
121	5374	133.3	0
121	5374	133.4	0
121	5374	133.5	0
121	5374	133.6	0
121	5374	133.7	0
121	5374	133.8	0
121	5374	133.9	0
121	5374	134	0
121	5374	134.1	0
121	5374	134.2	0
121	5374	134.3	0
121	5374	134.4	0
121	5374	134.5	0
121	5374	134.6	0
121	5374	134.7	0
121	5374	134.8	0
121	5374	134.9	0
121	5374	135	0
121	5374	135.1	0
121	5489	135.2	40960
121	6530	135.3	40960
121	6530	135.4	0
121	6530	135.5	0
121	6530	135.6	0
121	6530	135.7	0
121	6530	135.8	0
121	6530	135.9	0
121	6530	136	0
121	6530	136.1	0
121	6530	136.2	0
121	6530	136.3	0
121	6530	136.4	0
121	6530	136.5	0
121	6530	136.6	0
121	6530	136.7	0
121	6530	136.8	0
121	6530	136.9	0
121	6530	137	0
121	6530	137.1	0
121	6530	137.2	0
121	6530	137.3	0
121	6530	137.4	0
121	6530	137.5	0
121	6530	137.6	0
121	6530	137.7	0
121	6530	137.8	0
121	6530	137.9	0
121	6530	138	0
121	6530	138.1	0
121	6530	138.2	0
121	6530	138.3	0
121	6530	138.4	0
121	6530	138.5	0
121	6530	138.6	0
121	6530	138.7	0
121	6530	138.8	0
121	6530	138.9	0
121	6530	139	0
121	6530	139.1	0
121	6530	139.2	0
121	6530	139.3	0
121	6530	139.4	0
121	6530	139.5	0
121	6530	139.6	0
121	6530	139.7	0
121	6530	139.8	0
121	6530	139.9	0
121	6530	140	0
121	6530	140.1	0
121	6530	140.2	0
121	6530	140.3	0
121	6530	140.4	0
121	6530	140.5	0
121	6530	140.6	0
121	6530	140.7	0
121	6530	140.8	0
121	6530	140.9	0
121	6530	141	0
121	6530	141.1	0
121	6530	141.2	0
121	6530	141.3	0
121	6530	141.4	0
121	6530	141.5	0
121	6530	141.6	0
121	6530	141.7	0
121	6530	141.8	0
121	6530	141.9	0
121	6530	142	0
121	6530	142.1	0
121	6530	142.2	0
121	6530	142.3	0
121	6530	142.4	0
121	6530	142.5	0
121	6530	142.6	0
121	6530	142.7	0
121	6530	142.8	0
121	6530	142.9	0
121	6530	143	0
121	6530	143.1	0
121	6530	143.2	0
121	6530	143.3	0
121	6530	143.4	0
121	6530	143.5	0
121	6530	143.6	0
121	6530	143.7	0
121	6530	143.8	0
121	6530	143.9	0
121	6530	144	0
121	6530	144.1	0
121	6530	144.2	0
121	6530	144.3	0
121	6530	144.4	0
121	6530	144.5	0
121	6530	144.6	0
121	6530	144.7	0
121	6530	144.8	0
121	6530	144.9	0
121	6530	145	0
121	6530	145.1	0
121	6530	145.2	0
121	6530	145.3	0
121	6530	145.4	0
121	6530	145.5	0
121	6530	145.6	0
121	6530	145.7	0
121	6530	145.8	0
121	6530	145.9	0
121	6530	146	0
121	6530	146.1	0
121	6530	146.2	0
121	6530	146.3	0
121	6530	146.4	0
121	6530	146.5	0
121	6530	146.6	0
121	6530	146.7	0
121	6530	146.8	0
121	6530	146.9	0
121	6530	147	0
121	6530	147.1	0
121	6530	147.2	0
121	6530	147.3	0
121	6530	147.4	0
121	6530	147.5	0
121	6530	147.6	0
121	6530	147.7	0
121	6530	147.8	0
121	6530	147.9	0
121	6530	148	0
121	6530	148.1	0
121	8456	148.2	122880
121	8456	148.3	0
121	8456	148.4	0
121	8456	148.5	0
121	8456	148.6	0
121	8456	148.7	0
121	8456	148.8	0
121	8456	148.9	0
121	8456	149	0
121	8456	149.1	0
121	8456	149.2	0
121	8456	149.3	0
121	8456	149.4	0
121	8456	149.5	0
121	8456	149.6	0
121	8456	149.7	0
121	8456	149.8	0
121	8456	149.9	0
121	8456	150	0
121	8456	150.1	0
121	8456	150.2	0
121	8456	150.3	0
121	8456	150.4	0
121	8456	150.5	0
121	8456	150.6	0
121	8456	150.7	0
121	8456	150.8	0
121	8456	150.9	0
121	8456	151	0
121	8456	151.1	0
121	8456	151.2	0
121	8456	151.3	0
121	8456	151.4	0
121	8456	151.5	0
121	8456	151.6	0
121	8456	151.7	0
121	8456	151.8	0
121	8456	151.9	0
121	8456	152	0
121	8456	152.1	0
121	8456	152.2	0
121	8456	152.3	0
121	8456	152.4	0
121	8456	152.5	0
121	8456	152.6	0
121	8456	152.7	0
121	8456	152.8	0
121	8456	152.9	0
121	8456	153	0
121	8456	153.1	0
121	8456	153.2	0
121	8456	153.3	0
121	8456	153.4	0
121	8456	153.5	0
121	8456	153.6	0
121	8456	153.7	0
121	8456	153.8	0
121	8456	153.9	0
121	8456	154	0
121	8456	154.1	0
121	8456	154.2	0
121	8456	154.3	0
121	8456	154.4	0
121	8456	154.5	0
121	8456	154.6	0
121	8456	154.7	0
121	8456	154.8	0
121	8456	154.9	0
121	8456	155	0
121	8456	155.1	0
121	8456	155.2	0
121	8456	155.3	0
121	8456	155.4	0
121	8456	155.5	0
121	8456	155.6	0
121	8456	155.7	0
121	8456	155.8	0
121	8456	155.9	0
121	8456	156	0
121	8456	156.1	0
121	8456	156.2	0
121	8456	156.3	0
121	8456	156.4	0
121	8456	156.5	0
121	8456	156.6	0
121	8456	156.7	0
121	8456	156.8	0
121	8456	156.9	0
121	8456	157	0
121	8456	157.1	0
121	8456	157.2	0
121	8456	157.3	0
121	8456	157.4	0
121	8456	157.5	0
121	8456	157.6	0
121	8456	157.7	0
121	8456	157.8	0
121	8456	157.9	0
121	8456	158	0
121	8456	158.1	0
121	8456	158.2	0
121	8456	158.3	0
121	8456	158.4	0
121	8456	158.5	0
121	8456	158.6	0
121	8456	158.7	0
121	8456	158.8	0
121	8456	158.9	0
121	8456	159	0
121	8456	159.1	0
121	8456	159.2	0
121	8456	159.3	0
121	8456	159.4	0
121	8456	159.5	0
121	8456	159.6	0
121	8456	159.7	0
121	8456	159.8	0
121	8456	159.9	0
121	8456	160	0
121	8456	160.1	0
121	8456	160.2	0
121	8456	160.3	0
121	8456	160.4	0
121	8456	160.5	0
121	8456	160.6	0
121	8456	160.7	0
121	8456	160.8	0
121	8456	160.9	0
121	8456	161	0
121	8456	161.1	0
121	8456	161.2	0
121	8456	161.3	0
121	8456	161.4	0
121	8456	161.5	0
121	8456	161.6	0
121	8456	161.7	0
121	8456	161.8	0
121	8456	161.9	0
121	8456	162	0
121	8456	162.1	0
121	8456	162.2	0
121	8456	162.3	0
121	8456	162.4	0
121	8456	162.5	0
121	8456	162.6	0
121	8456	162.7	0
121	8456	162.8	0
121	8456	162.9	0
121	8456	163	0
121	8456	163.1	0
121	8456	163.2	0
121	8456	163.3	0
121	8456	163.4	0
121	8456	163.5	0
121	8456	163.6	0
121	8456	163.7	0
121	8456	163.8	0
121	8456	163.9	0
121	8456	164	0
121	8456	164.1	0
121	8456	164.2	0
121	8456	164.3	0
121	8456	164.4	0
121	8456	164.5	0
121	8456	164.6	0
121	8456	164.7	0
121	8456	164.8	0
121	8456	164.9	0
121	8456	165	0
121	8456	165.1	0
121	8456	165.2	0
121	8456	165.3	0
121	8456	165.4	0
121	8456	165.5	0
121	8456	165.6	0
121	8456	165.7	0
121	8456	165.8	0
121	8456	165.9	0
121	8456	166	0
121	8456	166.1	0
121	8456	166.2	0
121	8456	166.3	0
121	8456	166.4	0
121	8456	166.5	0
121	8456	166.6	0
121	8456	166.7	0
121	8456	166.8	0
121	8456	166.9	0
121	8456	167	0
121	8456	167.1	0
121	8456	167.2	0
121	8456	167.3	0
121	8456	167.4	0
121	8456	167.5	0
121	8456	167.6	0
121	8456	167.7	0
121	8456	167.8	0
121	8456	167.9	0
121	8456	168	0
121	8456	168.1	0
121	8456	168.2	0
121	8456	168.3	0
121	8456	168.4	0
121	8456	168.5	0
121	8456	168.6	0
121	8456	168.7	0
121	8456	168.8	0
121	8456	168.9	0
121	8456	169	0
121	8456	169.1	0
121	8456	169.2	0
121	8456	169.3	0
121	8456	169.4	0
121	8456	169.5	0
121	8456	169.6	0
121	8456	169.7	0
121	8456	169.8	0
121	8456	169.9	0
121	8456	170	0
121	8456	170.1	0
121	8456	170.2	0
121	8456	170.3	0
121	8456	170.4	0
121	8456	170.5	0
121	8456	170.6	0
121	8456	170.7	0
121	8456	170.8	0
121	8456	170.9	0
121	8456	171	0
121	8456	171.1	0
121	8456	171.2	0
121	8456	171.3	0
121	8456	171.4	0
121	8456	171.5	0
121	8456	171.6	0
121	8456	171.7	0
121	8456	171.8	0
121	8456	171.9	0
121	8456	172	0
121	8456	172.1	0
121	8456	172.2	0
121	8456	172.3	0
121	8456	172.4	0
121	8456	172.5	0
121	8456	172.6	0
121	8456	172.7	0
121	8456	172.8	0
121	8456	172.9	0
121	8456	173	0
121	8456	173.1	0
121	8830	173.2	81920
121	8830	173.3	0
121	8830	173.4	0
121	8830	173.5	0
121	8830	173.6	0
121	8830	173.7	0
121	8830	173.8	0
121	8830	173.9	0
121	8830	174	0
121	8830	174.1	0
121	8830	174.2	0
121	8830	174.3	0
121	8830	174.4	0
121	8830	174.5	0
121	8830	174.6	0
121	8830	174.7	0
121	8830	174.8	0
121	8830	174.9	0
121	8830	175	0
121	8830	175.1	0
121	8830	175.2	0
121	8830	175.3	0
121	8830	175.4	0
121	8830	175.5	0
121	8830	175.6	0
121	8830	175.7	0
121	8830	175.8	0
121	8830	175.9	0
121	8830	176	0
121	8830	176.1	0
121	8830	176.2	0
121	8830	176.3	0
121	8830	176.4	0
121	8830	176.5	0
121	8830	176.6	0
121	8830	176.7	0
121	8830	176.8	0
121	8830	176.9	0
121	8830	177	0
121	8830	177.1	0
121	8830	177.2	0
121	8830	177.3	0
121	8830	177.4	0
121	8830	177.5	0
121	8830	177.6	0
121	8830	177.7	0
121	8830	177.8	0
121	8830	177.9	0
121	8830	178	0
121	8830	178.1	0
121	8830	178.2	0
121	8830	178.3	0
121	8830	178.4	0
121	8830	178.5	0
121	8830	178.6	0
121	8830	178.7	0
121	8830	178.8	0
121	8830	178.9	0
121	8830	179	0
121	8830	179.1	0
121	8830	179.2	0
121	8830	179.3	0
121	8830	179.4	0
121	8830	179.5	0
121	8830	179.6	0
121	8830	179.7	0
121	8830	179.8	0
121	8830	179.9	0
121	8830	180	0
120	567	38.186	512
120	575	38.186	512
120	655	43.188	512
120	663	43.188	512
120	710	43.24684913115	512
120	763	45.149424262563	512
120	769	45.198424262563	512
120	829	48.196	512
120	837	48.196	512
120	912	50.15242431239	512
120	946	50.22942431239	512
120	1012	53.153	512
120	1135	58.117	512
120	1325	63.154	512
120	1333	63.154	512
120	1497	65.103424685134	512
120	1505	65.103424685134	512
120	1593	67.104424452743	512
120	1602	67.146424452743	512
120	1652	68.121	512
120	1660	68.121	512
120	1803	72.157424291491	512
120	1811	72.157424291491	512
120	1940	73.196	512
120	2136	75.179849803377	512
120	2193	78.169	512
120	2201	78.169	512
120	2576	83.156	512
120	2584	83.156	512
120	2659	83.218849666234	512
120	2717	84.165424903478	512
120	2730	84.214424903478	512
120	2782	88.174	512
120	2790	88.174	512
120	2956	89.144424798602	512
120	2974	89.226424798602	512
120	3059	90.208849608677	512
120	3110	93.14	512
120	3118	93.14	512
120	3313	97.100424440773	512
120	3355	97.191424440773	512
120	3373	98.177	512
120	3381	98.177	512
120	3445	98.177946024136	512
120	3492	98.212849936506	512
120	3567	100.185424970059	512
120	3575	100.185424970059	512
120	3681	102.128424818584	512
120	3735	102.189424818584	512
120	3753	103.152	512
120	3761	103.152	512
120	3843	103.24684929965	512
120	3948	105.105424517676	512
120	3959	105.187424517676	512
120	4037	108.12	512
120	4104	110.121424313794	512
120	4113	110.125424313794	512
120	4150	110.14284833636	512
120	4268	113.108	512
120	4276	113.108	512
120	4349	113.123848838324	512
120	4398	113.131848936134	512
120	5374	135.161425040856	512
120	5489	135.229425040856	512
120	6530	148.112	512
120	6538	148.112	512
120	6608	148.134850014866	512
120	8456	173.199	512
120	8464	173.199	512
122	567	38.186	512
122	655	43.188	512
122	829	48.196	512
122	1325	63.154	512
122	1497	65.103424685134	512
122	1652	68.121	512
122	1803	72.157424291491	512
122	2193	78.169	512
122	2576	83.156	512
122	2782	88.174	512
122	3110	93.14	512
122	3373	98.177	512
122	3567	100.185424970059	512
122	3753	103.152	512
122	4268	113.108	512
122	6530	148.112	512
122	8456	173.199	512
118	564	38.1	0
118	652	43.1	0
118	763	45.149424262563	0
118	826	48.1	0
118	912	50.15242431239	0
118	1006	53.1	0
118	1130	58.1	0
118	1320	63.1	0
118	1497	65.103424685134	0.11111111193895
118	1593	67.104424452743	0.10000000149012
118	1647	68.1	0.090909093618393
118	1803	72.157424291491	0.16666667163372
118	1855	73.1	0.15384615957737
118	2185	78.1	0.14285714924335
118	2569	83.1	0.13333334028721
118	2717	84.165424903478	0.125
118	2776	88.1	0.1176470592618
118	2956	89.144424798602	0.11111111193895
118	3103	93.1	0.10526315867901
118	3313	97.100424440773	0.10000000149012
118	3365	98.1	0.095238097012043
118	3567	100.185424970059	0.13636364042759
118	3681	102.128424818584	0.13043478131294
118	3745	103.1	0.125
118	3948	105.105424517676	0.11999999731779
118	4029	108.1	0.11538461595774
118	4104	110.121424313794	0.11111111193895
118	4261	113.1	0.10714285820723
118	4540	118.1	0.13793103396893
118	4727	123.1	0.16666667163372
118	4800	128.1	0.19354838132858
118	5106	133.1	0.21875
118	5374	135.161425040856	0.21212121844292
118	5793	138.1	0.2352941185236
118	6136	143.1	0.25714287161827
118	6520	148.1	0.25
118	6923	153.1	0.27027025818825
118	7468	158.1	0.28947368264198
118	7826	163.1	0.30769231915474
118	8207	168.1	0.32499998807907
118	8365	173.1	0.31707316637039
118	8641	178.1	0.33333334326744
260	1497	65.103424685134	1
260	1803	72.157424291491	2
260	3567	100.185424970059	3
260	4540	118.1	4
260	4727	123.1	5
260	4800	128.1	6
260	5106	133.1	7
260	5793	138.1	8
260	6136	143.1	9
260	6923	153.1	10
260	7468	158.1	11
260	7826	163.1	12
260	8207	168.1	13
260	8641	178.1	14
117	564	38.1	1
117	652	43.1	2
117	763	45.149424262563	3
117	826	48.1	4
117	912	50.15242431239	5
117	1006	53.1	6
117	1130	58.1	7
117	1320	63.1	8
117	1497	65.103424685134	9
117	1593	67.104424452743	10
117	1647	68.1	11
117	1803	72.157424291491	12
117	1855	73.1	13
117	2185	78.1	14
117	2569	83.1	15
117	2717	84.165424903478	16
117	2776	88.1	17
117	2956	89.144424798602	18
117	3103	93.1	19
117	3313	97.100424440773	20
117	3365	98.1	21
117	3567	100.185424970059	22
117	3681	102.128424818584	23
117	3745	103.1	24
117	3948	105.105424517676	25
117	4029	108.1	26
117	4104	110.121424313794	27
117	4261	113.1	28
117	4540	118.1	29
117	4727	123.1	30
117	4800	128.1	31
117	5106	133.1	32
117	5374	135.161425040856	33
117	5793	138.1	34
117	6136	143.1	35
117	6520	148.1	36
117	6923	153.1	37
117	7468	158.1	38
117	7826	163.1	39
117	8207	168.1	40
117	8365	173.1	41
117	8641	178.1	42
119	566	38.1	1
119	654	43.1	2
119	764	45.149424262563	3
119	828	48.1	4
119	913	50.15242431239	5
119	1008	53.1	6
119	1133	58.1	7
119	1323	63.1	8
119	1594	67.104424452743	9
119	1650	68.1	10
119	1858	73.1	11
119	2188	78.1	12
119	2573	83.1	13
119	2718	84.165424903478	14
119	2780	88.1	15
119	2957	89.144424798602	16
119	3107	93.1	17
119	3314	97.100424440773	18
119	3369	98.1	19
119	3682	102.128424818584	20
119	3750	103.1	21
119	3949	105.105424517676	22
119	4034	108.1	23
119	4105	110.121424313794	24
119	4266	113.1	25
119	5375	135.161425040856	26
119	6526	148.1	27
119	8369	173.1	28

