version 2
run General-0-20220422-21:21:42-1616
attr configname General
attr datetime 20220422-21:21:42
attr experiment General
attr inifile omnetpp.ini
attr iterationvars ""
attr iterationvarsf ""
attr measurement ""
attr network Scenario
attr processid 1616
attr repetition 0
attr replication #0
attr resultdir results
attr runnumber 0
attr seedset 0
param *.node[*].numApps 1
param *.node[*].app[0].typename "\"v2v_caching.veins_inet.VeinsInetSampleApplication\""
param *.node[*].app[0].interface "\"wlan0\""
param *.node[*].wlan[0].opMode "\"p\""
param *.node[*].wlan[0].radio.typename "\"Ieee80211DimensionalRadio\""
param *.node[*].wlan[0].radio.bandName "\"5.9 GHz\""
param *.node[*].wlan[0].radio.channelNumber 3
param *.node[*].wlan[0].radio.transmitter.power 20mW
param *.node[*].wlan[0].radio.bandwidth "10 MHz"
param *.node[*].wlan[*].radio.antenna.mobility.typename "\"AttachedMobility\""
param *.node[*].wlan[*].radio.antenna.mobility.mobilityModule "\"^.^.^.^.mobility\""
param *.node[*].wlan[*].radio.antenna.mobility.offsetX -2.5m
param *.node[*].wlan[*].radio.antenna.mobility.offsetZ 1.5m
param *.node[*].wlan[*].radio.antenna.mobility.constraintAreaMinX 0m
param *.node[*].wlan[*].radio.antenna.mobility.constraintAreaMaxX 0m
param *.node[*].wlan[*].radio.antenna.mobility.constraintAreaMinY 0m
param *.node[*].wlan[*].radio.antenna.mobility.constraintAreaMaxY 0m
param *.node[*].wlan[*].radio.antenna.mobility.constraintAreaMinZ 0m
param *.node[*].wlan[*].radio.antenna.mobility.constraintAreaMaxZ 0m
param *.node[*].ipv4.configurator.typename "\"HostAutoConfigurator\""
param *.node[*].ipv4.configurator.interfaces "\"wlan0\""
param *.node[*].ipv4.configurator.mcastGroups "\"224.0.0.1\""
param *.node[*].mobility.typename "\"VeinsInetMobility\""
param *.manager.updateInterval 0.1s
param *.manager.host "\"localhost\""
param *.manager.port 9999
param *.manager.autoShutdown true
param *.manager.launchConfig "xmldoc(\"Lode.launchd.xml\")"
param *.manager.moduleType "\"v2v_caching.veins_inet.VeinsInetCar\""
param *.radioMedium.obstacleLoss.typename "\"IdealObstacleLoss\""

vector 0 Scenario.node[0].wlan[0].radio radioMode:vector ETV
attr interpolationmode sample-hold
attr source radioModeChanged
attr title "Radio mode, vector"
vector 1 Scenario.node[0].wlan[0].radio radioChannel:vector ETV
attr interpolationmode sample-hold
attr source radioChannelChanged
attr title "Radio channel, vector"
vector 2 Scenario.node[0].wlan[0].radio receptionState:vector ETV
attr interpolationmode sample-hold
attr source receptionStateChanged
attr title "Radio reception state, vector"
vector 3 Scenario.node[0].wlan[0].mac.dcf.recoveryProcedure contentionWindowChanged:vector ETV
attr interpolationmode sample-hold
attr title "contention window, vector"
vector 4 Scenario.node[1].wlan[0].radio radioMode:vector ETV
attr interpolationmode sample-hold
attr source radioModeChanged
attr title "Radio mode, vector"
vector 5 Scenario.node[1].wlan[0].radio radioChannel:vector ETV
attr interpolationmode sample-hold
attr source radioChannelChanged
attr title "Radio channel, vector"
vector 6 Scenario.node[1].wlan[0].radio receptionState:vector ETV
attr interpolationmode sample-hold
attr source receptionStateChanged
attr title "Radio reception state, vector"
vector 7 Scenario.node[1].wlan[0].mac.dcf.recoveryProcedure contentionWindowChanged:vector ETV
attr interpolationmode sample-hold
attr title "contention window, vector"
vector 8 Scenario.node[0].cache requestsReceived:vector ETV
attr interpolationmode none
attr source receive
attr title "requests received, vector"
vector 9 Scenario.node[0].cache hitRate:vector ETV
attr interpolationmode none
attr source hitRate
attr title "hit rate, vector"
vector 10 Scenario.node[0].dataServer requestsReceived:vector ETV
attr interpolationmode none
attr source receive
attr title "requests received, vector"
vector 11 Scenario.node[0].app[0] packetReceived:vector(packetBytes) ETV
attr interpolationmode none
attr source packetReceived
attr title "packets received, vector(packetBytes)"
vector 12 Scenario.node[0].app[0] throughput:vector ETV
attr source throughput(packetReceived)
attr title "throughput, vector"
attr unit bps
vector 13 Scenario.node[0].app[0] RequestReceiveTime:vector ETV
attr interpolationmode none
attr source receiveTime
attr title "request time, vector"
vector 14 Scenario.node[1].cache requestsReceived:vector ETV
attr interpolationmode none
attr source receive
attr title "requests received, vector"
vector 15 Scenario.node[1].cache hitRate:vector ETV
attr interpolationmode none
attr source hitRate
attr title "hit rate, vector"
vector 16 Scenario.node[1].dataServer requestsReceived:vector ETV
attr interpolationmode none
attr source receive
attr title "requests received, vector"
vector 17 Scenario.node[1].app[0] packetReceived:vector(packetBytes) ETV
attr interpolationmode none
attr source packetReceived
attr title "packets received, vector(packetBytes)"
vector 18 Scenario.node[1].app[0] throughput:vector ETV
attr source throughput(packetReceived)
attr title "throughput, vector"
attr unit bps
vector 19 Scenario.node[1].app[0] RequestReceiveTime:vector ETV
attr interpolationmode none
attr source receiveTime
attr title "request time, vector"
vector 20 Scenario.node[2].wlan[0].radio radioMode:vector ETV
attr interpolationmode sample-hold
attr source radioModeChanged
attr title "Radio mode, vector"
vector 21 Scenario.node[2].wlan[0].radio radioChannel:vector ETV
attr interpolationmode sample-hold
attr source radioChannelChanged
attr title "Radio channel, vector"
vector 22 Scenario.node[2].wlan[0].radio receptionState:vector ETV
attr interpolationmode sample-hold
attr source receptionStateChanged
attr title "Radio reception state, vector"
vector 23 Scenario.node[2].wlan[0].mac.dcf.recoveryProcedure contentionWindowChanged:vector ETV
attr interpolationmode sample-hold
attr title "contention window, vector"
vector 24 Scenario.node[0].app[0] packetSent:vector(packetBytes) ETV
attr interpolationmode none
attr source packetSent
attr title "packets sent, vector(packetBytes)"
vector 25 Scenario.node[0].udp packetSent:vector(packetBytes) ETV
attr interpolationmode none
attr source packetSent
attr title "packets sent, vector(packetBytes)"
vector 26 Scenario.node[0].lo[0].lo rcvdPkFromHl:vector(packetBytes) ETV
attr interpolationmode none
attr source packetReceivedFromUpper
attr title "packets received from higher layer, vector(packetBytes)"
vector 27 Scenario.node[0].lo[0].lo passedUpPk:vector(packetBytes) ETV
attr interpolationmode none
attr source packetSentToUpper
attr title "packets passed to higher layer, vector(packetBytes)"
vector 28 Scenario.node[0].wlan[0].mac packetReceivedFromUpper:vector(packetBytes) ETV
attr interpolationmode none
attr title "packets received from upper layer, vector(packetBytes)"
vector 29 Scenario.node[0].wlan[0].mac.dcf.channelAccess.pendingQueue packetPushed:vector(packetBytes) ETV
attr interpolationmode none
attr title "packet pushed, vector(packetBytes)"
vector 30 Scenario.node[0].wlan[0].mac.dcf.channelAccess.pendingQueue queueLength:vector ETV
attr interpolationmode sample-hold
attr source "count(packetPushed) - count(packetPopped) - count(packetRemoved) - count(packetDropped)"
attr title "queue length, vector"
vector 31 Scenario.node[0].wlan[0].mac.dcf.channelAccess.contention backoffPeriodGenerated:vector ETV
attr interpolationmode none
attr title "backoff periods, vector"
vector 32 Scenario.node[0].wlan[0].mac.dcf.channelAccess.contention backoffActive:vector ETV
attr interpolationmode sample-hold
attr source count(backoffStarted)-count(backoffStopped)
attr title "backoff active, vector"
vector 33 Scenario.node[0].udp packetReceived:vector(packetBytes) ETV
attr interpolationmode none
attr source packetReceived
attr title "packets received, vector(packetBytes)"
vector 34 Scenario.node[0].udp passedUpPk:vector(count) ETV
attr interpolationmode none
attr source packetSentToUpper
attr title "packets passed up, vector(count)"
vector 35 Scenario.node[0].wlan[0].mac.dcf.channelAccess.pendingQueue packetPopped:vector(packetBytes) ETV
attr interpolationmode none
attr title "packet popped, vector(packetBytes)"
vector 36 Scenario.node[0].wlan[0].mac.dcf.channelAccess.pendingQueue queueingTime:vector ETV
attr interpolationmode none
attr source queueingTime(packetPopped)
attr title "queueing times, vector"
attr unit s
vector 37 Scenario.node[0].wlan[0].mac.dcf.channelAccess.inProgressFrames queueLength:vector ETV
attr interpolationmode sample-hold
attr source "count(packetEnqueued) - count(packetDequeued)"
attr title "queue length, vector"
vector 38 Scenario.node[0].wlan[0].mac.dcf datarateSelected:vector ETV
attr interpolationmode none
attr title "datarates selected, vector"
vector 39 Scenario.node[0].wlan[0].mac packetSentToLower:vector(packetBytes) ETV
attr interpolationmode none
attr title "packets sent to lower layer, vector(packetBytes)"
vector 40 Scenario.node[0].wlan[0].mac.dcf frameSequenceActive:vector ETV
attr interpolationmode sample-hold
attr source count(frameSequenceStarted)-count(frameSequenceFinished)
attr title "frame sequence active, vector"
vector 41 Scenario.node[0].wlan[0].radio transmissionState:vector ETV
attr interpolationmode sample-hold
attr source transmissionStateChanged
attr title "Radio transmission state, vector"
vector 42 Scenario.node[0].wlan[0].mac.dcf packetSentToPeer:vector(packetBytes) ETV
attr interpolationmode none
attr title "packets sent, vector(packetBytes)"
vector 43 Scenario.node[0].wlan[0].mac.dcf packetSentToPeerMulticast:vector(packetBytes) ETV
attr interpolationmode none
attr source ieee80211Multicast(packetSentToPeer)
attr title "packets sent: multicast, vector(packetBytes)"
vector 44 Scenario.node[0].wlan[0].mac.dcf packetSentToPeerWithoutRetry:vector(packetBytes) ETV
attr interpolationmode none
attr source ieee80211NotRetry(packetSentToPeer)
attr title "packets sent: without retry, vector(packetBytes)"
vector 45 Scenario.node[0].wlan[0].mac.dcf.channelAccess.inProgressFrames queueingTime:vector ETV
attr interpolationmode none
attr source queueingTime(packetDequeued)
attr title "queueing times, vector"
vector 46 Scenario.node[3].wlan[0].radio radioMode:vector ETV
attr interpolationmode sample-hold
attr source radioModeChanged
attr title "Radio mode, vector"
vector 47 Scenario.node[3].wlan[0].radio radioChannel:vector ETV
attr interpolationmode sample-hold
attr source radioChannelChanged
attr title "Radio channel, vector"
vector 48 Scenario.node[3].wlan[0].radio receptionState:vector ETV
attr interpolationmode sample-hold
attr source receptionStateChanged
attr title "Radio reception state, vector"
vector 49 Scenario.node[3].wlan[0].mac.dcf.recoveryProcedure contentionWindowChanged:vector ETV
attr interpolationmode sample-hold
attr title "contention window, vector"
vector 50 Scenario.node[1].app[0] packetSent:vector(packetBytes) ETV
attr interpolationmode none
attr source packetSent
attr title "packets sent, vector(packetBytes)"
vector 51 Scenario.node[1].udp packetSent:vector(packetBytes) ETV
attr interpolationmode none
attr source packetSent
attr title "packets sent, vector(packetBytes)"
vector 52 Scenario.node[1].lo[0].lo rcvdPkFromHl:vector(packetBytes) ETV
attr interpolationmode none
attr source packetReceivedFromUpper
attr title "packets received from higher layer, vector(packetBytes)"
vector 53 Scenario.node[1].lo[0].lo passedUpPk:vector(packetBytes) ETV
attr interpolationmode none
attr source packetSentToUpper
attr title "packets passed to higher layer, vector(packetBytes)"
vector 54 Scenario.node[1].wlan[0].mac packetReceivedFromUpper:vector(packetBytes) ETV
attr interpolationmode none
attr title "packets received from upper layer, vector(packetBytes)"
vector 55 Scenario.node[1].wlan[0].mac.dcf.channelAccess.pendingQueue packetPushed:vector(packetBytes) ETV
attr interpolationmode none
attr title "packet pushed, vector(packetBytes)"
vector 56 Scenario.node[1].wlan[0].mac.dcf.channelAccess.pendingQueue queueLength:vector ETV
attr interpolationmode sample-hold
attr source "count(packetPushed) - count(packetPopped) - count(packetRemoved) - count(packetDropped)"
attr title "queue length, vector"
vector 57 Scenario.node[1].wlan[0].mac.dcf.channelAccess.contention backoffPeriodGenerated:vector ETV
attr interpolationmode none
attr title "backoff periods, vector"
vector 58 Scenario.node[1].wlan[0].mac.dcf.channelAccess.contention backoffActive:vector ETV
attr interpolationmode sample-hold
attr source count(backoffStarted)-count(backoffStopped)
attr title "backoff active, vector"
vector 59 Scenario.node[1].udp packetReceived:vector(packetBytes) ETV
attr interpolationmode none
attr source packetReceived
attr title "packets received, vector(packetBytes)"
vector 60 Scenario.node[1].udp passedUpPk:vector(count) ETV
attr interpolationmode none
attr source packetSentToUpper
attr title "packets passed up, vector(count)"
vector 61 Scenario.node[1].wlan[0].mac.dcf.channelAccess.pendingQueue packetPopped:vector(packetBytes) ETV
attr interpolationmode none
attr title "packet popped, vector(packetBytes)"
vector 62 Scenario.node[1].wlan[0].mac.dcf.channelAccess.pendingQueue queueingTime:vector ETV
attr interpolationmode none
attr source queueingTime(packetPopped)
attr title "queueing times, vector"
attr unit s
vector 63 Scenario.node[1].wlan[0].mac.dcf.channelAccess.inProgressFrames queueLength:vector ETV
attr interpolationmode sample-hold
attr source "count(packetEnqueued) - count(packetDequeued)"
attr title "queue length, vector"
vector 64 Scenario.node[1].wlan[0].mac.dcf datarateSelected:vector ETV
attr interpolationmode none
attr title "datarates selected, vector"
vector 65 Scenario.node[1].wlan[0].mac packetSentToLower:vector(packetBytes) ETV
attr interpolationmode none
attr title "packets sent to lower layer, vector(packetBytes)"
vector 66 Scenario.node[1].wlan[0].mac.dcf frameSequenceActive:vector ETV
attr interpolationmode sample-hold
attr source count(frameSequenceStarted)-count(frameSequenceFinished)
attr title "frame sequence active, vector"
vector 67 Scenario.node[1].wlan[0].radio transmissionState:vector ETV
attr interpolationmode sample-hold
attr source transmissionStateChanged
attr title "Radio transmission state, vector"
vector 68 Scenario.node[1].wlan[0].mac.dcf packetSentToPeer:vector(packetBytes) ETV
attr interpolationmode none
attr title "packets sent, vector(packetBytes)"
vector 69 Scenario.node[1].wlan[0].mac.dcf packetSentToPeerMulticast:vector(packetBytes) ETV
attr interpolationmode none
attr source ieee80211Multicast(packetSentToPeer)
attr title "packets sent: multicast, vector(packetBytes)"
vector 70 Scenario.node[1].wlan[0].mac.dcf packetSentToPeerWithoutRetry:vector(packetBytes) ETV
attr interpolationmode none
attr source ieee80211NotRetry(packetSentToPeer)
attr title "packets sent: without retry, vector(packetBytes)"
vector 71 Scenario.node[1].wlan[0].mac.dcf.channelAccess.inProgressFrames queueingTime:vector ETV
attr interpolationmode none
attr source queueingTime(packetDequeued)
attr title "queueing times, vector"
vector 72 Scenario.node[4].wlan[0].radio radioMode:vector ETV
attr interpolationmode sample-hold
attr source radioModeChanged
attr title "Radio mode, vector"
vector 73 Scenario.node[4].wlan[0].radio radioChannel:vector ETV
attr interpolationmode sample-hold
attr source radioChannelChanged
attr title "Radio channel, vector"
vector 74 Scenario.node[4].wlan[0].radio receptionState:vector ETV
attr interpolationmode sample-hold
attr source receptionStateChanged
attr title "Radio reception state, vector"
vector 75 Scenario.node[4].wlan[0].mac.dcf.recoveryProcedure contentionWindowChanged:vector ETV
attr interpolationmode sample-hold
attr title "contention window, vector"
vector 76 Scenario.node[2].cache requestsReceived:vector ETV
attr interpolationmode none
attr source receive
attr title "requests received, vector"
vector 77 Scenario.node[2].cache hitRate:vector ETV
attr interpolationmode none
attr source hitRate
attr title "hit rate, vector"
vector 78 Scenario.node[2].dataServer requestsReceived:vector ETV
attr interpolationmode none
attr source receive
attr title "requests received, vector"
vector 79 Scenario.node[2].app[0] packetReceived:vector(packetBytes) ETV
attr interpolationmode none
attr source packetReceived
attr title "packets received, vector(packetBytes)"
vector 80 Scenario.node[2].app[0] throughput:vector ETV
attr source throughput(packetReceived)
attr title "throughput, vector"
attr unit bps
vector 81 Scenario.node[2].app[0] RequestReceiveTime:vector ETV
attr interpolationmode none
attr source receiveTime
attr title "request time, vector"
vector 82 Scenario.node[5].wlan[0].radio radioMode:vector ETV
attr interpolationmode sample-hold
attr source radioModeChanged
attr title "Radio mode, vector"
vector 83 Scenario.node[5].wlan[0].radio radioChannel:vector ETV
attr interpolationmode sample-hold
attr source radioChannelChanged
attr title "Radio channel, vector"
vector 84 Scenario.node[5].wlan[0].radio receptionState:vector ETV
attr interpolationmode sample-hold
attr source receptionStateChanged
attr title "Radio reception state, vector"
vector 85 Scenario.node[5].wlan[0].mac.dcf.recoveryProcedure contentionWindowChanged:vector ETV
attr interpolationmode sample-hold
attr title "contention window, vector"
vector 86 Scenario.node[3].cache requestsReceived:vector ETV
attr interpolationmode none
attr source receive
attr title "requests received, vector"
vector 87 Scenario.node[3].cache hitRate:vector ETV
attr interpolationmode none
attr source hitRate
attr title "hit rate, vector"
vector 88 Scenario.node[6].wlan[0].radio radioMode:vector ETV
attr interpolationmode sample-hold
attr source radioModeChanged
attr title "Radio mode, vector"
vector 89 Scenario.node[6].wlan[0].radio radioChannel:vector ETV
attr interpolationmode sample-hold
attr source radioChannelChanged
attr title "Radio channel, vector"
vector 90 Scenario.node[6].wlan[0].radio receptionState:vector ETV
attr interpolationmode sample-hold
attr source receptionStateChanged
attr title "Radio reception state, vector"
vector 91 Scenario.node[6].wlan[0].mac.dcf.recoveryProcedure contentionWindowChanged:vector ETV
attr interpolationmode sample-hold
attr title "contention window, vector"
vector 92 Scenario.node[3].dataServer requestsReceived:vector ETV
attr interpolationmode none
attr source receive
attr title "requests received, vector"
vector 93 Scenario.node[3].app[0] packetReceived:vector(packetBytes) ETV
attr interpolationmode none
attr source packetReceived
attr title "packets received, vector(packetBytes)"
vector 94 Scenario.node[3].app[0] throughput:vector ETV
attr source throughput(packetReceived)
attr title "throughput, vector"
attr unit bps
vector 95 Scenario.node[3].app[0] packetSent:vector(packetBytes) ETV
attr interpolationmode none
attr source packetSent
attr title "packets sent, vector(packetBytes)"
vector 96 Scenario.node[3].udp packetSent:vector(packetBytes) ETV
attr interpolationmode none
attr source packetSent
attr title "packets sent, vector(packetBytes)"
vector 97 Scenario.node[3].lo[0].lo rcvdPkFromHl:vector(packetBytes) ETV
attr interpolationmode none
attr source packetReceivedFromUpper
attr title "packets received from higher layer, vector(packetBytes)"
vector 98 Scenario.node[3].lo[0].lo passedUpPk:vector(packetBytes) ETV
attr interpolationmode none
attr source packetSentToUpper
attr title "packets passed to higher layer, vector(packetBytes)"
vector 99 Scenario.node[3].wlan[0].mac packetReceivedFromUpper:vector(packetBytes) ETV
attr interpolationmode none
attr title "packets received from upper layer, vector(packetBytes)"
vector 100 Scenario.node[3].wlan[0].mac.dcf.channelAccess.pendingQueue packetPushed:vector(packetBytes) ETV
attr interpolationmode none
attr title "packet pushed, vector(packetBytes)"
vector 101 Scenario.node[3].wlan[0].mac.dcf.channelAccess.pendingQueue queueLength:vector ETV
attr interpolationmode sample-hold
attr source "count(packetPushed) - count(packetPopped) - count(packetRemoved) - count(packetDropped)"
attr title "queue length, vector"
vector 102 Scenario.node[3].wlan[0].mac.dcf.channelAccess.contention backoffPeriodGenerated:vector ETV
attr interpolationmode none
attr title "backoff periods, vector"
vector 103 Scenario.node[3].wlan[0].mac.dcf.channelAccess.contention backoffActive:vector ETV
attr interpolationmode sample-hold
attr source count(backoffStarted)-count(backoffStopped)
attr title "backoff active, vector"
vector 104 Scenario.node[3].udp packetReceived:vector(packetBytes) ETV
attr interpolationmode none
attr source packetReceived
attr title "packets received, vector(packetBytes)"
vector 105 Scenario.node[3].udp passedUpPk:vector(count) ETV
attr interpolationmode none
attr source packetSentToUpper
attr title "packets passed up, vector(count)"
vector 106 Scenario.node[3].wlan[0].mac.dcf.channelAccess.pendingQueue packetPopped:vector(packetBytes) ETV
attr interpolationmode none
attr title "packet popped, vector(packetBytes)"
vector 107 Scenario.node[3].wlan[0].mac.dcf.channelAccess.pendingQueue queueingTime:vector ETV
attr interpolationmode none
attr source queueingTime(packetPopped)
attr title "queueing times, vector"
attr unit s
vector 108 Scenario.node[3].wlan[0].mac.dcf.channelAccess.inProgressFrames queueLength:vector ETV
attr interpolationmode sample-hold
attr source "count(packetEnqueued) - count(packetDequeued)"
attr title "queue length, vector"
vector 109 Scenario.node[3].wlan[0].mac.dcf datarateSelected:vector ETV
attr interpolationmode none
attr title "datarates selected, vector"
vector 110 Scenario.node[3].wlan[0].mac packetSentToLower:vector(packetBytes) ETV
attr interpolationmode none
attr title "packets sent to lower layer, vector(packetBytes)"
vector 111 Scenario.node[3].wlan[0].mac.dcf frameSequenceActive:vector ETV
attr interpolationmode sample-hold
attr source count(frameSequenceStarted)-count(frameSequenceFinished)
attr title "frame sequence active, vector"
vector 112 Scenario.node[3].wlan[0].radio transmissionState:vector ETV
attr interpolationmode sample-hold
attr source transmissionStateChanged
attr title "Radio transmission state, vector"
vector 113 Scenario.node[3].wlan[0].mac.dcf packetSentToPeer:vector(packetBytes) ETV
attr interpolationmode none
attr title "packets sent, vector(packetBytes)"
vector 114 Scenario.node[3].wlan[0].mac.dcf packetSentToPeerMulticast:vector(packetBytes) ETV
attr interpolationmode none
attr source ieee80211Multicast(packetSentToPeer)
attr title "packets sent: multicast, vector(packetBytes)"
vector 115 Scenario.node[3].wlan[0].mac.dcf packetSentToPeerWithoutRetry:vector(packetBytes) ETV
attr interpolationmode none
attr source ieee80211NotRetry(packetSentToPeer)
attr title "packets sent: without retry, vector(packetBytes)"
vector 116 Scenario.node[3].wlan[0].mac.dcf.channelAccess.inProgressFrames queueingTime:vector ETV
attr interpolationmode none
attr source queueingTime(packetDequeued)
attr title "queueing times, vector"
vector 117 Scenario.node[4].cache requestsReceived:vector ETV
attr interpolationmode none
attr source receive
attr title "requests received, vector"
vector 118 Scenario.node[4].cache hitRate:vector ETV
attr interpolationmode none
attr source hitRate
attr title "hit rate, vector"
vector 119 Scenario.node[7].wlan[0].radio radioMode:vector ETV
attr interpolationmode sample-hold
attr source radioModeChanged
attr title "Radio mode, vector"
vector 120 Scenario.node[7].wlan[0].radio radioChannel:vector ETV
attr interpolationmode sample-hold
attr source radioChannelChanged
attr title "Radio channel, vector"
vector 121 Scenario.node[7].wlan[0].radio receptionState:vector ETV
attr interpolationmode sample-hold
attr source receptionStateChanged
attr title "Radio reception state, vector"
vector 122 Scenario.node[7].wlan[0].mac.dcf.recoveryProcedure contentionWindowChanged:vector ETV
attr interpolationmode sample-hold
attr title "contention window, vector"
vector 123 Scenario.node[4].dataServer requestsReceived:vector ETV
attr interpolationmode none
attr source receive
attr title "requests received, vector"
vector 124 Scenario.node[4].app[0] packetReceived:vector(packetBytes) ETV
attr interpolationmode none
attr source packetReceived
attr title "packets received, vector(packetBytes)"
vector 125 Scenario.node[4].app[0] throughput:vector ETV
attr source throughput(packetReceived)
attr title "throughput, vector"
attr unit bps
vector 126 Scenario.node[4].app[0] packetSent:vector(packetBytes) ETV
attr interpolationmode none
attr source packetSent
attr title "packets sent, vector(packetBytes)"
vector 127 Scenario.node[4].udp packetSent:vector(packetBytes) ETV
attr interpolationmode none
attr source packetSent
attr title "packets sent, vector(packetBytes)"
vector 128 Scenario.node[4].lo[0].lo rcvdPkFromHl:vector(packetBytes) ETV
attr interpolationmode none
attr source packetReceivedFromUpper
attr title "packets received from higher layer, vector(packetBytes)"
vector 129 Scenario.node[4].lo[0].lo passedUpPk:vector(packetBytes) ETV
attr interpolationmode none
attr source packetSentToUpper
attr title "packets passed to higher layer, vector(packetBytes)"
vector 130 Scenario.node[4].wlan[0].mac packetReceivedFromUpper:vector(packetBytes) ETV
attr interpolationmode none
attr title "packets received from upper layer, vector(packetBytes)"
vector 131 Scenario.node[4].wlan[0].mac.dcf.channelAccess.pendingQueue packetPushed:vector(packetBytes) ETV
attr interpolationmode none
attr title "packet pushed, vector(packetBytes)"
vector 132 Scenario.node[4].wlan[0].mac.dcf.channelAccess.pendingQueue queueLength:vector ETV
attr interpolationmode sample-hold
attr source "count(packetPushed) - count(packetPopped) - count(packetRemoved) - count(packetDropped)"
attr title "queue length, vector"
vector 133 Scenario.node[4].wlan[0].mac.dcf.channelAccess.contention backoffPeriodGenerated:vector ETV
attr interpolationmode none
attr title "backoff periods, vector"
vector 134 Scenario.node[4].wlan[0].mac.dcf.channelAccess.contention backoffActive:vector ETV
attr interpolationmode sample-hold
attr source count(backoffStarted)-count(backoffStopped)
attr title "backoff active, vector"
vector 135 Scenario.node[4].udp packetReceived:vector(packetBytes) ETV
attr interpolationmode none
attr source packetReceived
attr title "packets received, vector(packetBytes)"
vector 136 Scenario.node[4].udp passedUpPk:vector(count) ETV
attr interpolationmode none
attr source packetSentToUpper
attr title "packets passed up, vector(count)"
vector 137 Scenario.node[4].wlan[0].mac.dcf.channelAccess.pendingQueue packetPopped:vector(packetBytes) ETV
attr interpolationmode none
attr title "packet popped, vector(packetBytes)"
vector 138 Scenario.node[4].wlan[0].mac.dcf.channelAccess.pendingQueue queueingTime:vector ETV
attr interpolationmode none
attr source queueingTime(packetPopped)
attr title "queueing times, vector"
attr unit s
vector 139 Scenario.node[4].wlan[0].mac.dcf.channelAccess.inProgressFrames queueLength:vector ETV
attr interpolationmode sample-hold
attr source "count(packetEnqueued) - count(packetDequeued)"
attr title "queue length, vector"
vector 140 Scenario.node[4].wlan[0].mac.dcf datarateSelected:vector ETV
attr interpolationmode none
attr title "datarates selected, vector"
vector 141 Scenario.node[4].wlan[0].mac packetSentToLower:vector(packetBytes) ETV
attr interpolationmode none
attr title "packets sent to lower layer, vector(packetBytes)"
vector 142 Scenario.node[4].wlan[0].mac.dcf frameSequenceActive:vector ETV
attr interpolationmode sample-hold
attr source count(frameSequenceStarted)-count(frameSequenceFinished)
attr title "frame sequence active, vector"
vector 143 Scenario.node[4].wlan[0].radio transmissionState:vector ETV
attr interpolationmode sample-hold
attr source transmissionStateChanged
attr title "Radio transmission state, vector"
vector 144 Scenario.node[4].wlan[0].mac.dcf packetSentToPeer:vector(packetBytes) ETV
attr interpolationmode none
attr title "packets sent, vector(packetBytes)"
vector 145 Scenario.node[4].wlan[0].mac.dcf packetSentToPeerMulticast:vector(packetBytes) ETV
attr interpolationmode none
attr source ieee80211Multicast(packetSentToPeer)
attr title "packets sent: multicast, vector(packetBytes)"
vector 146 Scenario.node[4].wlan[0].mac.dcf packetSentToPeerWithoutRetry:vector(packetBytes) ETV
attr interpolationmode none
attr source ieee80211NotRetry(packetSentToPeer)
attr title "packets sent: without retry, vector(packetBytes)"
vector 147 Scenario.node[4].wlan[0].mac.dcf.channelAccess.inProgressFrames queueingTime:vector ETV
attr interpolationmode none
attr source queueingTime(packetDequeued)
attr title "queueing times, vector"
vector 148 Scenario.node[5].cache requestsReceived:vector ETV
attr interpolationmode none
attr source receive
attr title "requests received, vector"
vector 149 Scenario.node[5].cache hitRate:vector ETV
attr interpolationmode none
attr source hitRate
attr title "hit rate, vector"
vector 150 Scenario.node[5].dataServer requestsReceived:vector ETV
attr interpolationmode none
attr source receive
attr title "requests received, vector"
vector 151 Scenario.node[5].app[0] packetReceived:vector(packetBytes) ETV
attr interpolationmode none
attr source packetReceived
attr title "packets received, vector(packetBytes)"
vector 152 Scenario.node[5].app[0] throughput:vector ETV
attr source throughput(packetReceived)
attr title "throughput, vector"
attr unit bps
vector 153 Scenario.node[5].app[0] RequestReceiveTime:vector ETV
attr interpolationmode none
attr source receiveTime
attr title "request time, vector"
vector 154 Scenario.node[6].cache requestsReceived:vector ETV
attr interpolationmode none
attr source receive
attr title "requests received, vector"
vector 155 Scenario.node[6].cache hitRate:vector ETV
attr interpolationmode none
attr source hitRate
attr title "hit rate, vector"
vector 156 Scenario.node[6].dataServer requestsReceived:vector ETV
attr interpolationmode none
attr source receive
attr title "requests received, vector"
vector 157 Scenario.node[6].app[0] packetReceived:vector(packetBytes) ETV
attr interpolationmode none
attr source packetReceived
attr title "packets received, vector(packetBytes)"
vector 158 Scenario.node[6].app[0] throughput:vector ETV
attr source throughput(packetReceived)
attr title "throughput, vector"
attr unit bps
vector 159 Scenario.node[6].app[0] RequestReceiveTime:vector ETV
attr interpolationmode none
attr source receiveTime
attr title "request time, vector"
vector 160 Scenario.node[8].wlan[0].radio radioMode:vector ETV
attr interpolationmode sample-hold
attr source radioModeChanged
attr title "Radio mode, vector"
vector 161 Scenario.node[8].wlan[0].radio radioChannel:vector ETV
attr interpolationmode sample-hold
attr source radioChannelChanged
attr title "Radio channel, vector"
vector 162 Scenario.node[8].wlan[0].radio receptionState:vector ETV
attr interpolationmode sample-hold
attr source receptionStateChanged
attr title "Radio reception state, vector"
vector 163 Scenario.node[8].wlan[0].mac.dcf.recoveryProcedure contentionWindowChanged:vector ETV
attr interpolationmode sample-hold
attr title "contention window, vector"
vector 164 Scenario.node[7].cache requestsReceived:vector ETV
attr interpolationmode none
attr source receive
attr title "requests received, vector"
vector 165 Scenario.node[7].cache hitRate:vector ETV
attr interpolationmode none
attr source hitRate
attr title "hit rate, vector"
vector 166 Scenario.node[7].dataServer requestsReceived:vector ETV
attr interpolationmode none
attr source receive
attr title "requests received, vector"
vector 167 Scenario.node[4].app[0] RequestReceiveTime:vector ETV
attr interpolationmode none
attr source receiveTime
attr title "request time, vector"
vector 168 Scenario.node[7].app[0] packetReceived:vector(packetBytes) ETV
attr interpolationmode none
attr source packetReceived
attr title "packets received, vector(packetBytes)"
vector 169 Scenario.node[7].app[0] throughput:vector ETV
attr source throughput(packetReceived)
attr title "throughput, vector"
attr unit bps
vector 170 Scenario.node[7].app[0] packetSent:vector(packetBytes) ETV
attr interpolationmode none
attr source packetSent
attr title "packets sent, vector(packetBytes)"
vector 171 Scenario.node[7].udp packetSent:vector(packetBytes) ETV
attr interpolationmode none
attr source packetSent
attr title "packets sent, vector(packetBytes)"
vector 172 Scenario.node[7].lo[0].lo rcvdPkFromHl:vector(packetBytes) ETV
attr interpolationmode none
attr source packetReceivedFromUpper
attr title "packets received from higher layer, vector(packetBytes)"
vector 173 Scenario.node[7].lo[0].lo passedUpPk:vector(packetBytes) ETV
attr interpolationmode none
attr source packetSentToUpper
attr title "packets passed to higher layer, vector(packetBytes)"
vector 174 Scenario.node[7].wlan[0].mac packetReceivedFromUpper:vector(packetBytes) ETV
attr interpolationmode none
attr title "packets received from upper layer, vector(packetBytes)"
vector 175 Scenario.node[7].wlan[0].mac.dcf.channelAccess.pendingQueue packetPushed:vector(packetBytes) ETV
attr interpolationmode none
attr title "packet pushed, vector(packetBytes)"
vector 176 Scenario.node[7].wlan[0].mac.dcf.channelAccess.pendingQueue queueLength:vector ETV
attr interpolationmode sample-hold
attr source "count(packetPushed) - count(packetPopped) - count(packetRemoved) - count(packetDropped)"
attr title "queue length, vector"
vector 177 Scenario.node[7].wlan[0].mac.dcf.channelAccess.contention backoffPeriodGenerated:vector ETV
attr interpolationmode none
attr title "backoff periods, vector"
vector 178 Scenario.node[7].wlan[0].mac.dcf.channelAccess.contention backoffActive:vector ETV
attr interpolationmode sample-hold
attr source count(backoffStarted)-count(backoffStopped)
attr title "backoff active, vector"
vector 179 Scenario.node[7].udp packetReceived:vector(packetBytes) ETV
attr interpolationmode none
attr source packetReceived
attr title "packets received, vector(packetBytes)"
vector 180 Scenario.node[7].udp passedUpPk:vector(count) ETV
attr interpolationmode none
attr source packetSentToUpper
attr title "packets passed up, vector(count)"
vector 181 Scenario.node[7].wlan[0].mac.dcf.channelAccess.pendingQueue packetPopped:vector(packetBytes) ETV
attr interpolationmode none
attr title "packet popped, vector(packetBytes)"
vector 182 Scenario.node[7].wlan[0].mac.dcf.channelAccess.pendingQueue queueingTime:vector ETV
attr interpolationmode none
attr source queueingTime(packetPopped)
attr title "queueing times, vector"
attr unit s
vector 183 Scenario.node[7].wlan[0].mac.dcf.channelAccess.inProgressFrames queueLength:vector ETV
attr interpolationmode sample-hold
attr source "count(packetEnqueued) - count(packetDequeued)"
attr title "queue length, vector"
vector 184 Scenario.node[7].wlan[0].mac.dcf datarateSelected:vector ETV
attr interpolationmode none
attr title "datarates selected, vector"
vector 185 Scenario.node[7].wlan[0].mac packetSentToLower:vector(packetBytes) ETV
attr interpolationmode none
attr title "packets sent to lower layer, vector(packetBytes)"
vector 186 Scenario.node[7].wlan[0].mac.dcf frameSequenceActive:vector ETV
attr interpolationmode sample-hold
attr source count(frameSequenceStarted)-count(frameSequenceFinished)
attr title "frame sequence active, vector"
vector 187 Scenario.node[7].wlan[0].radio transmissionState:vector ETV
attr interpolationmode sample-hold
attr source transmissionStateChanged
attr title "Radio transmission state, vector"
vector 188 Scenario.node[7].wlan[0].mac.dcf packetSentToPeer:vector(packetBytes) ETV
attr interpolationmode none
attr title "packets sent, vector(packetBytes)"
vector 189 Scenario.node[7].wlan[0].mac.dcf packetSentToPeerMulticast:vector(packetBytes) ETV
attr interpolationmode none
attr source ieee80211Multicast(packetSentToPeer)
attr title "packets sent: multicast, vector(packetBytes)"
vector 190 Scenario.node[7].wlan[0].mac.dcf packetSentToPeerWithoutRetry:vector(packetBytes) ETV
attr interpolationmode none
attr source ieee80211NotRetry(packetSentToPeer)
attr title "packets sent: without retry, vector(packetBytes)"
vector 191 Scenario.node[7].wlan[0].mac.dcf.channelAccess.inProgressFrames queueingTime:vector ETV
attr interpolationmode none
attr source queueingTime(packetDequeued)
attr title "queueing times, vector"
vector 192 Scenario.node[6].wlan[0].mac packetReceivedFromLower:vector(packetBytes) ETV
attr interpolationmode none
attr title "packets received from lower layer, vector(packetBytes)"
vector 193 Scenario.node[6].wlan[0].mac.dcf packetReceivedFromPeer:vector(packetBytes) ETV
attr interpolationmode none
attr title "packets received, vector(packetBytes)"
vector 194 Scenario.node[6].wlan[0].mac.dcf packetReceivedFromPeerMulticast:vector(packetBytes) ETV
attr interpolationmode none
attr source ieee80211Multicast(packetReceivedFromPeer)
attr title "packets received: multicast, vector(packetBytes)"
vector 195 Scenario.node[6].wlan[0].mac.dcf packetReceivedFromPeerWithoutRetry:vector(packetBytes) ETV
attr interpolationmode none
attr source ieee80211NotRetry(packetReceivedFromPeer)
attr title "packets received: without retry, vector(packetBytes)"
vector 196 Scenario.node[6].wlan[0].mac packetSentToUpper:vector(packetBytes) ETV
attr interpolationmode none
attr title "packets sent to upper layer, vector(packetBytes)"
vector 197 Scenario.node[6].udp packetReceived:vector(packetBytes) ETV
attr interpolationmode none
attr source packetReceived
attr title "packets received, vector(packetBytes)"
vector 198 Scenario.node[6].udp passedUpPk:vector(count) ETV
attr interpolationmode none
attr source packetSentToUpper
attr title "packets passed up, vector(count)"
vector 199 Scenario.node[5].app[0] packetSent:vector(packetBytes) ETV
attr interpolationmode none
attr source packetSent
attr title "packets sent, vector(packetBytes)"
vector 200 Scenario.node[5].udp packetSent:vector(packetBytes) ETV
attr interpolationmode none
attr source packetSent
attr title "packets sent, vector(packetBytes)"
vector 201 Scenario.node[5].lo[0].lo rcvdPkFromHl:vector(packetBytes) ETV
attr interpolationmode none
attr source packetReceivedFromUpper
attr title "packets received from higher layer, vector(packetBytes)"
vector 202 Scenario.node[5].lo[0].lo passedUpPk:vector(packetBytes) ETV
attr interpolationmode none
attr source packetSentToUpper
attr title "packets passed to higher layer, vector(packetBytes)"
vector 203 Scenario.node[5].wlan[0].mac packetReceivedFromUpper:vector(packetBytes) ETV
attr interpolationmode none
attr title "packets received from upper layer, vector(packetBytes)"
vector 204 Scenario.node[5].wlan[0].mac.dcf.channelAccess.pendingQueue packetPushed:vector(packetBytes) ETV
attr interpolationmode none
attr title "packet pushed, vector(packetBytes)"
vector 205 Scenario.node[5].wlan[0].mac.dcf.channelAccess.pendingQueue queueLength:vector ETV
attr interpolationmode sample-hold
attr source "count(packetPushed) - count(packetPopped) - count(packetRemoved) - count(packetDropped)"
attr title "queue length, vector"
vector 206 Scenario.node[5].wlan[0].mac.dcf.channelAccess.contention backoffPeriodGenerated:vector ETV
attr interpolationmode none
attr title "backoff periods, vector"
vector 207 Scenario.node[5].wlan[0].mac.dcf.channelAccess.contention backoffActive:vector ETV
attr interpolationmode sample-hold
attr source count(backoffStarted)-count(backoffStopped)
attr title "backoff active, vector"
vector 208 Scenario.node[5].udp packetReceived:vector(packetBytes) ETV
attr interpolationmode none
attr source packetReceived
attr title "packets received, vector(packetBytes)"
vector 209 Scenario.node[5].udp passedUpPk:vector(count) ETV
attr interpolationmode none
attr source packetSentToUpper
attr title "packets passed up, vector(count)"
vector 210 Scenario.node[5].wlan[0].mac.dcf.channelAccess.pendingQueue packetPopped:vector(packetBytes) ETV
attr interpolationmode none
attr title "packet popped, vector(packetBytes)"
vector 211 Scenario.node[5].wlan[0].mac.dcf.channelAccess.pendingQueue queueingTime:vector ETV
attr interpolationmode none
attr source queueingTime(packetPopped)
attr title "queueing times, vector"
attr unit s
vector 212 Scenario.node[5].wlan[0].mac.dcf.channelAccess.inProgressFrames queueLength:vector ETV
attr interpolationmode sample-hold
attr source "count(packetEnqueued) - count(packetDequeued)"
attr title "queue length, vector"
vector 213 Scenario.node[5].wlan[0].mac.dcf datarateSelected:vector ETV
attr interpolationmode none
attr title "datarates selected, vector"
vector 214 Scenario.node[5].wlan[0].mac packetSentToLower:vector(packetBytes) ETV
attr interpolationmode none
attr title "packets sent to lower layer, vector(packetBytes)"
vector 215 Scenario.node[5].wlan[0].mac.dcf frameSequenceActive:vector ETV
attr interpolationmode sample-hold
attr source count(frameSequenceStarted)-count(frameSequenceFinished)
attr title "frame sequence active, vector"
vector 216 Scenario.node[5].wlan[0].radio transmissionState:vector ETV
attr interpolationmode sample-hold
attr source transmissionStateChanged
attr title "Radio transmission state, vector"
vector 217 Scenario.node[5].wlan[0].mac.dcf packetSentToPeer:vector(packetBytes) ETV
attr interpolationmode none
attr title "packets sent, vector(packetBytes)"
vector 218 Scenario.node[5].wlan[0].mac.dcf packetSentToPeerMulticast:vector(packetBytes) ETV
attr interpolationmode none
attr source ieee80211Multicast(packetSentToPeer)
attr title "packets sent: multicast, vector(packetBytes)"
vector 219 Scenario.node[5].wlan[0].mac.dcf packetSentToPeerWithoutRetry:vector(packetBytes) ETV
attr interpolationmode none
attr source ieee80211NotRetry(packetSentToPeer)
attr title "packets sent: without retry, vector(packetBytes)"
vector 220 Scenario.node[5].wlan[0].mac.dcf.channelAccess.inProgressFrames queueingTime:vector ETV
attr interpolationmode none
attr source queueingTime(packetDequeued)
attr title "queueing times, vector"
vector 221 Scenario.node[6].app[0] packetSent:vector(packetBytes) ETV
attr interpolationmode none
attr source packetSent
attr title "packets sent, vector(packetBytes)"
vector 222 Scenario.node[6].udp packetSent:vector(packetBytes) ETV
attr interpolationmode none
attr source packetSent
attr title "packets sent, vector(packetBytes)"
vector 223 Scenario.node[6].lo[0].lo rcvdPkFromHl:vector(packetBytes) ETV
attr interpolationmode none
attr source packetReceivedFromUpper
attr title "packets received from higher layer, vector(packetBytes)"
vector 224 Scenario.node[6].lo[0].lo passedUpPk:vector(packetBytes) ETV
attr interpolationmode none
attr source packetSentToUpper
attr title "packets passed to higher layer, vector(packetBytes)"
vector 225 Scenario.node[6].wlan[0].mac packetReceivedFromUpper:vector(packetBytes) ETV
attr interpolationmode none
attr title "packets received from upper layer, vector(packetBytes)"
vector 226 Scenario.node[6].wlan[0].mac.dcf.channelAccess.pendingQueue packetPushed:vector(packetBytes) ETV
attr interpolationmode none
attr title "packet pushed, vector(packetBytes)"
vector 227 Scenario.node[6].wlan[0].mac.dcf.channelAccess.pendingQueue queueLength:vector ETV
attr interpolationmode sample-hold
attr source "count(packetPushed) - count(packetPopped) - count(packetRemoved) - count(packetDropped)"
attr title "queue length, vector"
vector 228 Scenario.node[6].wlan[0].mac.dcf.channelAccess.contention backoffPeriodGenerated:vector ETV
attr interpolationmode none
attr title "backoff periods, vector"
vector 229 Scenario.node[6].wlan[0].mac.dcf.channelAccess.contention backoffActive:vector ETV
attr interpolationmode sample-hold
attr source count(backoffStarted)-count(backoffStopped)
attr title "backoff active, vector"
vector 230 Scenario.node[6].wlan[0].mac.dcf.channelAccess.pendingQueue packetPopped:vector(packetBytes) ETV
attr interpolationmode none
attr title "packet popped, vector(packetBytes)"
vector 231 Scenario.node[6].wlan[0].mac.dcf.channelAccess.pendingQueue queueingTime:vector ETV
attr interpolationmode none
attr source queueingTime(packetPopped)
attr title "queueing times, vector"
attr unit s
vector 232 Scenario.node[6].wlan[0].mac.dcf.channelAccess.inProgressFrames queueLength:vector ETV
attr interpolationmode sample-hold
attr source "count(packetEnqueued) - count(packetDequeued)"
attr title "queue length, vector"
vector 233 Scenario.node[6].wlan[0].mac.dcf datarateSelected:vector ETV
attr interpolationmode none
attr title "datarates selected, vector"
vector 234 Scenario.node[6].wlan[0].mac packetSentToLower:vector(packetBytes) ETV
attr interpolationmode none
attr title "packets sent to lower layer, vector(packetBytes)"
vector 235 Scenario.node[6].wlan[0].mac.dcf frameSequenceActive:vector ETV
attr interpolationmode sample-hold
attr source count(frameSequenceStarted)-count(frameSequenceFinished)
attr title "frame sequence active, vector"
vector 236 Scenario.node[6].wlan[0].radio transmissionState:vector ETV
attr interpolationmode sample-hold
attr source transmissionStateChanged
attr title "Radio transmission state, vector"
vector 237 Scenario.node[6].wlan[0].mac.dcf packetSentToPeer:vector(packetBytes) ETV
attr interpolationmode none
attr title "packets sent, vector(packetBytes)"
vector 238 Scenario.node[6].wlan[0].mac.dcf packetSentToPeerMulticast:vector(packetBytes) ETV
attr interpolationmode none
attr source ieee80211Multicast(packetSentToPeer)
attr title "packets sent: multicast, vector(packetBytes)"
vector 239 Scenario.node[6].wlan[0].mac.dcf packetSentToPeerWithoutRetry:vector(packetBytes) ETV
attr interpolationmode none
attr source ieee80211NotRetry(packetSentToPeer)
attr title "packets sent: without retry, vector(packetBytes)"
vector 240 Scenario.node[6].wlan[0].mac.dcf.channelAccess.inProgressFrames queueingTime:vector ETV
attr interpolationmode none
attr source queueingTime(packetDequeued)
attr title "queueing times, vector"
vector 241 Scenario.node[7].wlan[0].mac packetReceivedFromLower:vector(packetBytes) ETV
attr interpolationmode none
attr title "packets received from lower layer, vector(packetBytes)"
vector 242 Scenario.node[7].wlan[0].mac.dcf packetReceivedFromPeer:vector(packetBytes) ETV
attr interpolationmode none
attr title "packets received, vector(packetBytes)"
vector 243 Scenario.node[7].wlan[0].mac.dcf packetReceivedFromPeerMulticast:vector(packetBytes) ETV
attr interpolationmode none
attr source ieee80211Multicast(packetReceivedFromPeer)
attr title "packets received: multicast, vector(packetBytes)"
vector 244 Scenario.node[7].wlan[0].mac.dcf packetReceivedFromPeerWithoutRetry:vector(packetBytes) ETV
attr interpolationmode none
attr source ieee80211NotRetry(packetReceivedFromPeer)
attr title "packets received: without retry, vector(packetBytes)"
vector 245 Scenario.node[7].wlan[0].mac packetSentToUpper:vector(packetBytes) ETV
attr interpolationmode none
attr title "packets sent to upper layer, vector(packetBytes)"
vector 246 Scenario.node[8].cache requestsReceived:vector ETV
attr interpolationmode none
attr source receive
attr title "requests received, vector"
vector 247 Scenario.node[8].cache hitRate:vector ETV
attr interpolationmode none
attr source hitRate
attr title "hit rate, vector"
vector 248 Scenario.node[8].dataServer requestsReceived:vector ETV
attr interpolationmode none
attr source receive
attr title "requests received, vector"
vector 249 Scenario.node[8].app[0] packetReceived:vector(packetBytes) ETV
attr interpolationmode none
attr source packetReceived
attr title "packets received, vector(packetBytes)"
vector 250 Scenario.node[8].app[0] throughput:vector ETV
attr source throughput(packetReceived)
attr title "throughput, vector"
attr unit bps
vector 251 Scenario.node[8].app[0] RequestReceiveTime:vector ETV
attr interpolationmode none
attr source receiveTime
attr title "request time, vector"
vector 252 Scenario.node[7].app[0] RequestReceiveTime:vector ETV
attr interpolationmode none
attr source receiveTime
attr title "request time, vector"
vector 253 Scenario.node[3].app[0] RequestReceiveTime:vector ETV
attr interpolationmode none
attr source receiveTime
attr title "request time, vector"
vector 254 Scenario.node[9].wlan[0].radio radioMode:vector ETV
attr interpolationmode sample-hold
attr source radioModeChanged
attr title "Radio mode, vector"
vector 255 Scenario.node[9].wlan[0].radio radioChannel:vector ETV
attr interpolationmode sample-hold
attr source radioChannelChanged
attr title "Radio channel, vector"
vector 256 Scenario.node[9].wlan[0].radio receptionState:vector ETV
attr interpolationmode sample-hold
attr source receptionStateChanged
attr title "Radio reception state, vector"
vector 257 Scenario.node[9].wlan[0].mac.dcf.recoveryProcedure contentionWindowChanged:vector ETV
attr interpolationmode sample-hold
attr title "contention window, vector"
vector 258 Scenario.node[8].app[0] packetSent:vector(packetBytes) ETV
attr interpolationmode none
attr source packetSent
attr title "packets sent, vector(packetBytes)"
vector 259 Scenario.node[8].udp packetSent:vector(packetBytes) ETV
attr interpolationmode none
attr source packetSent
attr title "packets sent, vector(packetBytes)"
vector 260 Scenario.node[8].lo[0].lo rcvdPkFromHl:vector(packetBytes) ETV
attr interpolationmode none
attr source packetReceivedFromUpper
attr title "packets received from higher layer, vector(packetBytes)"
vector 261 Scenario.node[8].lo[0].lo passedUpPk:vector(packetBytes) ETV
attr interpolationmode none
attr source packetSentToUpper
attr title "packets passed to higher layer, vector(packetBytes)"
vector 262 Scenario.node[8].wlan[0].mac packetReceivedFromUpper:vector(packetBytes) ETV
attr interpolationmode none
attr title "packets received from upper layer, vector(packetBytes)"
vector 263 Scenario.node[8].wlan[0].mac.dcf.channelAccess.pendingQueue packetPushed:vector(packetBytes) ETV
attr interpolationmode none
attr title "packet pushed, vector(packetBytes)"
vector 264 Scenario.node[8].wlan[0].mac.dcf.channelAccess.pendingQueue queueLength:vector ETV
attr interpolationmode sample-hold
attr source "count(packetPushed) - count(packetPopped) - count(packetRemoved) - count(packetDropped)"
attr title "queue length, vector"
vector 265 Scenario.node[8].wlan[0].mac.dcf.channelAccess.contention backoffPeriodGenerated:vector ETV
attr interpolationmode none
attr title "backoff periods, vector"
vector 266 Scenario.node[8].wlan[0].mac.dcf.channelAccess.contention backoffActive:vector ETV
attr interpolationmode sample-hold
attr source count(backoffStarted)-count(backoffStopped)
attr title "backoff active, vector"
vector 267 Scenario.node[8].udp packetReceived:vector(packetBytes) ETV
attr interpolationmode none
attr source packetReceived
attr title "packets received, vector(packetBytes)"
vector 268 Scenario.node[8].udp passedUpPk:vector(count) ETV
attr interpolationmode none
attr source packetSentToUpper
attr title "packets passed up, vector(count)"
vector 269 Scenario.node[8].wlan[0].mac.dcf.channelAccess.pendingQueue packetPopped:vector(packetBytes) ETV
attr interpolationmode none
attr title "packet popped, vector(packetBytes)"
vector 270 Scenario.node[8].wlan[0].mac.dcf.channelAccess.pendingQueue queueingTime:vector ETV
attr interpolationmode none
attr source queueingTime(packetPopped)
attr title "queueing times, vector"
attr unit s
vector 271 Scenario.node[8].wlan[0].mac.dcf.channelAccess.inProgressFrames queueLength:vector ETV
attr interpolationmode sample-hold
attr source "count(packetEnqueued) - count(packetDequeued)"
attr title "queue length, vector"
vector 272 Scenario.node[8].wlan[0].mac.dcf datarateSelected:vector ETV
attr interpolationmode none
attr title "datarates selected, vector"
vector 273 Scenario.node[8].wlan[0].mac packetSentToLower:vector(packetBytes) ETV
attr interpolationmode none
attr title "packets sent to lower layer, vector(packetBytes)"
vector 274 Scenario.node[8].wlan[0].mac.dcf frameSequenceActive:vector ETV
attr interpolationmode sample-hold
attr source count(frameSequenceStarted)-count(frameSequenceFinished)
attr title "frame sequence active, vector"
vector 275 Scenario.node[8].wlan[0].radio transmissionState:vector ETV
attr interpolationmode sample-hold
attr source transmissionStateChanged
attr title "Radio transmission state, vector"
vector 276 Scenario.node[8].wlan[0].mac.dcf packetSentToPeer:vector(packetBytes) ETV
attr interpolationmode none
attr title "packets sent, vector(packetBytes)"
vector 277 Scenario.node[8].wlan[0].mac.dcf packetSentToPeerMulticast:vector(packetBytes) ETV
attr interpolationmode none
attr source ieee80211Multicast(packetSentToPeer)
attr title "packets sent: multicast, vector(packetBytes)"
vector 278 Scenario.node[8].wlan[0].mac.dcf packetSentToPeerWithoutRetry:vector(packetBytes) ETV
attr interpolationmode none
attr source ieee80211NotRetry(packetSentToPeer)
attr title "packets sent: without retry, vector(packetBytes)"
vector 279 Scenario.node[8].wlan[0].mac.dcf.channelAccess.inProgressFrames queueingTime:vector ETV
attr interpolationmode none
attr source queueingTime(packetDequeued)
attr title "queueing times, vector"
vector 280 Scenario.node[2].app[0] packetSent:vector(packetBytes) ETV
attr interpolationmode none
attr source packetSent
attr title "packets sent, vector(packetBytes)"
vector 281 Scenario.node[2].udp packetSent:vector(packetBytes) ETV
attr interpolationmode none
attr source packetSent
attr title "packets sent, vector(packetBytes)"
vector 282 Scenario.node[2].lo[0].lo rcvdPkFromHl:vector(packetBytes) ETV
attr interpolationmode none
attr source packetReceivedFromUpper
attr title "packets received from higher layer, vector(packetBytes)"
vector 283 Scenario.node[2].lo[0].lo passedUpPk:vector(packetBytes) ETV
attr interpolationmode none
attr source packetSentToUpper
attr title "packets passed to higher layer, vector(packetBytes)"
vector 284 Scenario.node[2].wlan[0].mac packetReceivedFromUpper:vector(packetBytes) ETV
attr interpolationmode none
attr title "packets received from upper layer, vector(packetBytes)"
vector 285 Scenario.node[2].wlan[0].mac.dcf.channelAccess.pendingQueue packetPushed:vector(packetBytes) ETV
attr interpolationmode none
attr title "packet pushed, vector(packetBytes)"
vector 286 Scenario.node[2].wlan[0].mac.dcf.channelAccess.pendingQueue queueLength:vector ETV
attr interpolationmode sample-hold
attr source "count(packetPushed) - count(packetPopped) - count(packetRemoved) - count(packetDropped)"
attr title "queue length, vector"
vector 287 Scenario.node[2].wlan[0].mac.dcf.channelAccess.contention backoffPeriodGenerated:vector ETV
attr interpolationmode none
attr title "backoff periods, vector"
vector 288 Scenario.node[2].wlan[0].mac.dcf.channelAccess.contention backoffActive:vector ETV
attr interpolationmode sample-hold
attr source count(backoffStarted)-count(backoffStopped)
attr title "backoff active, vector"
vector 289 Scenario.node[2].udp packetReceived:vector(packetBytes) ETV
attr interpolationmode none
attr source packetReceived
attr title "packets received, vector(packetBytes)"
vector 290 Scenario.node[2].udp passedUpPk:vector(count) ETV
attr interpolationmode none
attr source packetSentToUpper
attr title "packets passed up, vector(count)"
vector 291 Scenario.node[2].wlan[0].mac.dcf.channelAccess.pendingQueue packetPopped:vector(packetBytes) ETV
attr interpolationmode none
attr title "packet popped, vector(packetBytes)"
vector 292 Scenario.node[2].wlan[0].mac.dcf.channelAccess.pendingQueue queueingTime:vector ETV
attr interpolationmode none
attr source queueingTime(packetPopped)
attr title "queueing times, vector"
attr unit s
vector 293 Scenario.node[2].wlan[0].mac.dcf.channelAccess.inProgressFrames queueLength:vector ETV
attr interpolationmode sample-hold
attr source "count(packetEnqueued) - count(packetDequeued)"
attr title "queue length, vector"
vector 294 Scenario.node[2].wlan[0].mac.dcf datarateSelected:vector ETV
attr interpolationmode none
attr title "datarates selected, vector"
vector 295 Scenario.node[2].wlan[0].mac packetSentToLower:vector(packetBytes) ETV
attr interpolationmode none
attr title "packets sent to lower layer, vector(packetBytes)"
vector 296 Scenario.node[2].wlan[0].mac.dcf frameSequenceActive:vector ETV
attr interpolationmode sample-hold
attr source count(frameSequenceStarted)-count(frameSequenceFinished)
attr title "frame sequence active, vector"
vector 297 Scenario.node[2].wlan[0].radio transmissionState:vector ETV
attr interpolationmode sample-hold
attr source transmissionStateChanged
attr title "Radio transmission state, vector"
vector 298 Scenario.node[2].wlan[0].mac.dcf packetSentToPeer:vector(packetBytes) ETV
attr interpolationmode none
attr title "packets sent, vector(packetBytes)"
vector 299 Scenario.node[2].wlan[0].mac.dcf packetSentToPeerMulticast:vector(packetBytes) ETV
attr interpolationmode none
attr source ieee80211Multicast(packetSentToPeer)
attr title "packets sent: multicast, vector(packetBytes)"
vector 300 Scenario.node[2].wlan[0].mac.dcf packetSentToPeerWithoutRetry:vector(packetBytes) ETV
attr interpolationmode none
attr source ieee80211NotRetry(packetSentToPeer)
attr title "packets sent: without retry, vector(packetBytes)"
vector 301 Scenario.node[2].wlan[0].mac.dcf.channelAccess.inProgressFrames queueingTime:vector ETV
attr interpolationmode none
attr source queueingTime(packetDequeued)
attr title "queueing times, vector"
vector 302 Scenario.node[10].wlan[0].radio radioMode:vector ETV
attr interpolationmode sample-hold
attr source radioModeChanged
attr title "Radio mode, vector"
vector 303 Scenario.node[10].wlan[0].radio radioChannel:vector ETV
attr interpolationmode sample-hold
attr source radioChannelChanged
attr title "Radio channel, vector"
vector 304 Scenario.node[10].wlan[0].radio receptionState:vector ETV
attr interpolationmode sample-hold
attr source receptionStateChanged
attr title "Radio reception state, vector"
vector 305 Scenario.node[10].wlan[0].mac.dcf.recoveryProcedure contentionWindowChanged:vector ETV
attr interpolationmode sample-hold
attr title "contention window, vector"
vector 306 Scenario.node[9].cache requestsReceived:vector ETV
attr interpolationmode none
attr source receive
attr title "requests received, vector"
vector 307 Scenario.node[9].cache hitRate:vector ETV
attr interpolationmode none
attr source hitRate
attr title "hit rate, vector"
vector 308 Scenario.node[9].dataServer requestsReceived:vector ETV
attr interpolationmode none
attr source receive
attr title "requests received, vector"
vector 309 Scenario.node[9].app[0] packetReceived:vector(packetBytes) ETV
attr interpolationmode none
attr source packetReceived
attr title "packets received, vector(packetBytes)"
vector 310 Scenario.node[9].app[0] throughput:vector ETV
attr source throughput(packetReceived)
attr title "throughput, vector"
attr unit bps
vector 311 Scenario.node[9].app[0] RequestReceiveTime:vector ETV
attr interpolationmode none
attr source receiveTime
attr title "request time, vector"
vector 312 Scenario.node[10].cache requestsReceived:vector ETV
attr interpolationmode none
attr source receive
attr title "requests received, vector"
vector 313 Scenario.node[10].cache hitRate:vector ETV
attr interpolationmode none
attr source hitRate
attr title "hit rate, vector"
vector 314 Scenario.node[11].wlan[0].radio radioMode:vector ETV
attr interpolationmode sample-hold
attr source radioModeChanged
attr title "Radio mode, vector"
vector 315 Scenario.node[11].wlan[0].radio radioChannel:vector ETV
attr interpolationmode sample-hold
attr source radioChannelChanged
attr title "Radio channel, vector"
vector 316 Scenario.node[11].wlan[0].radio receptionState:vector ETV
attr interpolationmode sample-hold
attr source receptionStateChanged
attr title "Radio reception state, vector"
vector 317 Scenario.node[11].wlan[0].mac.dcf.recoveryProcedure contentionWindowChanged:vector ETV
attr interpolationmode sample-hold
attr title "contention window, vector"
vector 318 Scenario.node[10].dataServer requestsReceived:vector ETV
attr interpolationmode none
attr source receive
attr title "requests received, vector"
vector 319 Scenario.node[10].app[0] packetReceived:vector(packetBytes) ETV
attr interpolationmode none
attr source packetReceived
attr title "packets received, vector(packetBytes)"
vector 320 Scenario.node[10].app[0] throughput:vector ETV
attr source throughput(packetReceived)
attr title "throughput, vector"
attr unit bps
vector 321 Scenario.node[10].app[0] packetSent:vector(packetBytes) ETV
attr interpolationmode none
attr source packetSent
attr title "packets sent, vector(packetBytes)"
vector 322 Scenario.node[10].udp packetSent:vector(packetBytes) ETV
attr interpolationmode none
attr source packetSent
attr title "packets sent, vector(packetBytes)"
vector 323 Scenario.node[10].lo[0].lo rcvdPkFromHl:vector(packetBytes) ETV
attr interpolationmode none
attr source packetReceivedFromUpper
attr title "packets received from higher layer, vector(packetBytes)"
vector 324 Scenario.node[10].lo[0].lo passedUpPk:vector(packetBytes) ETV
attr interpolationmode none
attr source packetSentToUpper
attr title "packets passed to higher layer, vector(packetBytes)"
vector 325 Scenario.node[10].wlan[0].mac packetReceivedFromUpper:vector(packetBytes) ETV
attr interpolationmode none
attr title "packets received from upper layer, vector(packetBytes)"
vector 326 Scenario.node[10].wlan[0].mac.dcf.channelAccess.pendingQueue packetPushed:vector(packetBytes) ETV
attr interpolationmode none
attr title "packet pushed, vector(packetBytes)"
vector 327 Scenario.node[10].wlan[0].mac.dcf.channelAccess.pendingQueue queueLength:vector ETV
attr interpolationmode sample-hold
attr source "count(packetPushed) - count(packetPopped) - count(packetRemoved) - count(packetDropped)"
attr title "queue length, vector"
vector 328 Scenario.node[10].wlan[0].mac.dcf.channelAccess.contention backoffPeriodGenerated:vector ETV
attr interpolationmode none
attr title "backoff periods, vector"
vector 329 Scenario.node[10].wlan[0].mac.dcf.channelAccess.contention backoffActive:vector ETV
attr interpolationmode sample-hold
attr source count(backoffStarted)-count(backoffStopped)
attr title "backoff active, vector"
vector 330 Scenario.node[10].udp packetReceived:vector(packetBytes) ETV
attr interpolationmode none
attr source packetReceived
attr title "packets received, vector(packetBytes)"
vector 331 Scenario.node[10].udp passedUpPk:vector(count) ETV
attr interpolationmode none
attr source packetSentToUpper
attr title "packets passed up, vector(count)"
vector 332 Scenario.node[10].wlan[0].mac.dcf.channelAccess.pendingQueue packetPopped:vector(packetBytes) ETV
attr interpolationmode none
attr title "packet popped, vector(packetBytes)"
vector 333 Scenario.node[10].wlan[0].mac.dcf.channelAccess.pendingQueue queueingTime:vector ETV
attr interpolationmode none
attr source queueingTime(packetPopped)
attr title "queueing times, vector"
attr unit s
vector 334 Scenario.node[10].wlan[0].mac.dcf.channelAccess.inProgressFrames queueLength:vector ETV
attr interpolationmode sample-hold
attr source "count(packetEnqueued) - count(packetDequeued)"
attr title "queue length, vector"
vector 335 Scenario.node[10].wlan[0].mac.dcf datarateSelected:vector ETV
attr interpolationmode none
attr title "datarates selected, vector"
vector 336 Scenario.node[10].wlan[0].mac packetSentToLower:vector(packetBytes) ETV
attr interpolationmode none
attr title "packets sent to lower layer, vector(packetBytes)"
vector 337 Scenario.node[10].wlan[0].mac.dcf frameSequenceActive:vector ETV
attr interpolationmode sample-hold
attr source count(frameSequenceStarted)-count(frameSequenceFinished)
attr title "frame sequence active, vector"
vector 338 Scenario.node[10].wlan[0].radio transmissionState:vector ETV
attr interpolationmode sample-hold
attr source transmissionStateChanged
attr title "Radio transmission state, vector"
vector 339 Scenario.node[10].wlan[0].mac.dcf packetSentToPeer:vector(packetBytes) ETV
attr interpolationmode none
attr title "packets sent, vector(packetBytes)"
vector 340 Scenario.node[10].wlan[0].mac.dcf packetSentToPeerMulticast:vector(packetBytes) ETV
attr interpolationmode none
attr source ieee80211Multicast(packetSentToPeer)
attr title "packets sent: multicast, vector(packetBytes)"
vector 341 Scenario.node[10].wlan[0].mac.dcf packetSentToPeerWithoutRetry:vector(packetBytes) ETV
attr interpolationmode none
attr source ieee80211NotRetry(packetSentToPeer)
attr title "packets sent: without retry, vector(packetBytes)"
vector 342 Scenario.node[10].wlan[0].mac.dcf.channelAccess.inProgressFrames queueingTime:vector ETV
attr interpolationmode none
attr source queueingTime(packetDequeued)
attr title "queueing times, vector"
vector 343 Scenario.node[12].wlan[0].radio radioMode:vector ETV
attr interpolationmode sample-hold
attr source radioModeChanged
attr title "Radio mode, vector"
vector 344 Scenario.node[12].wlan[0].radio radioChannel:vector ETV
attr interpolationmode sample-hold
attr source radioChannelChanged
attr title "Radio channel, vector"
vector 345 Scenario.node[12].wlan[0].radio receptionState:vector ETV
attr interpolationmode sample-hold
attr source receptionStateChanged
attr title "Radio reception state, vector"
vector 346 Scenario.node[12].wlan[0].mac.dcf.recoveryProcedure contentionWindowChanged:vector ETV
attr interpolationmode sample-hold
attr title "contention window, vector"
vector 347 Scenario.node[11].cache requestsReceived:vector ETV
attr interpolationmode none
attr source receive
attr title "requests received, vector"
vector 348 Scenario.node[11].cache hitRate:vector ETV
attr interpolationmode none
attr source hitRate
attr title "hit rate, vector"
vector 349 Scenario.node[11].dataServer requestsReceived:vector ETV
attr interpolationmode none
attr source receive
attr title "requests received, vector"
vector 350 Scenario.node[11].app[0] packetReceived:vector(packetBytes) ETV
attr interpolationmode none
attr source packetReceived
attr title "packets received, vector(packetBytes)"
vector 351 Scenario.node[11].app[0] throughput:vector ETV
attr source throughput(packetReceived)
attr title "throughput, vector"
attr unit bps
vector 352 Scenario.node[11].app[0] RequestReceiveTime:vector ETV
attr interpolationmode none
attr source receiveTime
attr title "request time, vector"
vector 353 Scenario.node[9].app[0] packetSent:vector(packetBytes) ETV
attr interpolationmode none
attr source packetSent
attr title "packets sent, vector(packetBytes)"
vector 354 Scenario.node[9].udp packetSent:vector(packetBytes) ETV
attr interpolationmode none
attr source packetSent
attr title "packets sent, vector(packetBytes)"
vector 355 Scenario.node[9].lo[0].lo rcvdPkFromHl:vector(packetBytes) ETV
attr interpolationmode none
attr source packetReceivedFromUpper
attr title "packets received from higher layer, vector(packetBytes)"
vector 356 Scenario.node[9].lo[0].lo passedUpPk:vector(packetBytes) ETV
attr interpolationmode none
attr source packetSentToUpper
attr title "packets passed to higher layer, vector(packetBytes)"
vector 357 Scenario.node[9].wlan[0].mac packetReceivedFromUpper:vector(packetBytes) ETV
attr interpolationmode none
attr title "packets received from upper layer, vector(packetBytes)"
vector 358 Scenario.node[9].wlan[0].mac.dcf.channelAccess.pendingQueue packetPushed:vector(packetBytes) ETV
attr interpolationmode none
attr title "packet pushed, vector(packetBytes)"
vector 359 Scenario.node[9].wlan[0].mac.dcf.channelAccess.pendingQueue queueLength:vector ETV
attr interpolationmode sample-hold
attr source "count(packetPushed) - count(packetPopped) - count(packetRemoved) - count(packetDropped)"
attr title "queue length, vector"
vector 360 Scenario.node[9].wlan[0].mac.dcf.channelAccess.contention backoffPeriodGenerated:vector ETV
attr interpolationmode none
attr title "backoff periods, vector"
vector 361 Scenario.node[9].wlan[0].mac.dcf.channelAccess.contention backoffActive:vector ETV
attr interpolationmode sample-hold
attr source count(backoffStarted)-count(backoffStopped)
attr title "backoff active, vector"
vector 362 Scenario.node[9].udp packetReceived:vector(packetBytes) ETV
attr interpolationmode none
attr source packetReceived
attr title "packets received, vector(packetBytes)"
vector 363 Scenario.node[9].udp passedUpPk:vector(count) ETV
attr interpolationmode none
attr source packetSentToUpper
attr title "packets passed up, vector(count)"
vector 364 Scenario.node[9].wlan[0].mac.dcf.channelAccess.pendingQueue packetPopped:vector(packetBytes) ETV
attr interpolationmode none
attr title "packet popped, vector(packetBytes)"
vector 365 Scenario.node[9].wlan[0].mac.dcf.channelAccess.pendingQueue queueingTime:vector ETV
attr interpolationmode none
attr source queueingTime(packetPopped)
attr title "queueing times, vector"
attr unit s
vector 366 Scenario.node[9].wlan[0].mac.dcf.channelAccess.inProgressFrames queueLength:vector ETV
attr interpolationmode sample-hold
attr source "count(packetEnqueued) - count(packetDequeued)"
attr title "queue length, vector"
vector 367 Scenario.node[9].wlan[0].mac.dcf datarateSelected:vector ETV
attr interpolationmode none
attr title "datarates selected, vector"
vector 368 Scenario.node[9].wlan[0].mac packetSentToLower:vector(packetBytes) ETV
attr interpolationmode none
attr title "packets sent to lower layer, vector(packetBytes)"
vector 369 Scenario.node[9].wlan[0].mac.dcf frameSequenceActive:vector ETV
attr interpolationmode sample-hold
attr source count(frameSequenceStarted)-count(frameSequenceFinished)
attr title "frame sequence active, vector"
vector 370 Scenario.node[9].wlan[0].radio transmissionState:vector ETV
attr interpolationmode sample-hold
attr source transmissionStateChanged
attr title "Radio transmission state, vector"
vector 371 Scenario.node[9].wlan[0].mac.dcf packetSentToPeer:vector(packetBytes) ETV
attr interpolationmode none
attr title "packets sent, vector(packetBytes)"
vector 372 Scenario.node[9].wlan[0].mac.dcf packetSentToPeerMulticast:vector(packetBytes) ETV
attr interpolationmode none
attr source ieee80211Multicast(packetSentToPeer)
attr title "packets sent: multicast, vector(packetBytes)"
vector 373 Scenario.node[9].wlan[0].mac.dcf packetSentToPeerWithoutRetry:vector(packetBytes) ETV
attr interpolationmode none
attr source ieee80211NotRetry(packetSentToPeer)
attr title "packets sent: without retry, vector(packetBytes)"
vector 374 Scenario.node[9].wlan[0].mac.dcf.channelAccess.inProgressFrames queueingTime:vector ETV
attr interpolationmode none
attr source queueingTime(packetDequeued)
attr title "queueing times, vector"
vector 375 Scenario.node[12].cache requestsReceived:vector ETV
attr interpolationmode none
attr source receive
attr title "requests received, vector"
vector 376 Scenario.node[12].cache hitRate:vector ETV
attr interpolationmode none
attr source hitRate
attr title "hit rate, vector"
vector 377 Scenario.node[13].wlan[0].radio radioMode:vector ETV
attr interpolationmode sample-hold
attr source radioModeChanged
attr title "Radio mode, vector"
vector 378 Scenario.node[13].wlan[0].radio radioChannel:vector ETV
attr interpolationmode sample-hold
attr source radioChannelChanged
attr title "Radio channel, vector"
vector 379 Scenario.node[13].wlan[0].radio receptionState:vector ETV
attr interpolationmode sample-hold
attr source receptionStateChanged
attr title "Radio reception state, vector"
vector 380 Scenario.node[13].wlan[0].mac.dcf.recoveryProcedure contentionWindowChanged:vector ETV
attr interpolationmode sample-hold
attr title "contention window, vector"
vector 381 Scenario.node[12].dataServer requestsReceived:vector ETV
attr interpolationmode none
attr source receive
attr title "requests received, vector"
vector 382 Scenario.node[12].app[0] packetReceived:vector(packetBytes) ETV
attr interpolationmode none
attr source packetReceived
attr title "packets received, vector(packetBytes)"
vector 383 Scenario.node[12].app[0] throughput:vector ETV
attr source throughput(packetReceived)
attr title "throughput, vector"
attr unit bps
vector 384 Scenario.node[12].app[0] packetSent:vector(packetBytes) ETV
attr interpolationmode none
attr source packetSent
attr title "packets sent, vector(packetBytes)"
vector 385 Scenario.node[12].udp packetSent:vector(packetBytes) ETV
attr interpolationmode none
attr source packetSent
attr title "packets sent, vector(packetBytes)"
vector 386 Scenario.node[12].lo[0].lo rcvdPkFromHl:vector(packetBytes) ETV
attr interpolationmode none
attr source packetReceivedFromUpper
attr title "packets received from higher layer, vector(packetBytes)"
vector 387 Scenario.node[12].lo[0].lo passedUpPk:vector(packetBytes) ETV
attr interpolationmode none
attr source packetSentToUpper
attr title "packets passed to higher layer, vector(packetBytes)"
vector 388 Scenario.node[12].wlan[0].mac packetReceivedFromUpper:vector(packetBytes) ETV
attr interpolationmode none
attr title "packets received from upper layer, vector(packetBytes)"
vector 389 Scenario.node[12].wlan[0].mac.dcf.channelAccess.pendingQueue packetPushed:vector(packetBytes) ETV
attr interpolationmode none
attr title "packet pushed, vector(packetBytes)"
vector 390 Scenario.node[12].wlan[0].mac.dcf.channelAccess.pendingQueue queueLength:vector ETV
attr interpolationmode sample-hold
attr source "count(packetPushed) - count(packetPopped) - count(packetRemoved) - count(packetDropped)"
attr title "queue length, vector"
vector 391 Scenario.node[12].wlan[0].mac.dcf.channelAccess.contention backoffPeriodGenerated:vector ETV
attr interpolationmode none
attr title "backoff periods, vector"
vector 392 Scenario.node[12].wlan[0].mac.dcf.channelAccess.contention backoffActive:vector ETV
attr interpolationmode sample-hold
attr source count(backoffStarted)-count(backoffStopped)
attr title "backoff active, vector"
vector 393 Scenario.node[12].udp packetReceived:vector(packetBytes) ETV
attr interpolationmode none
attr source packetReceived
attr title "packets received, vector(packetBytes)"
vector 394 Scenario.node[12].udp passedUpPk:vector(count) ETV
attr interpolationmode none
attr source packetSentToUpper
attr title "packets passed up, vector(count)"
vector 395 Scenario.node[12].wlan[0].mac.dcf.channelAccess.pendingQueue packetPopped:vector(packetBytes) ETV
attr interpolationmode none
attr title "packet popped, vector(packetBytes)"
vector 396 Scenario.node[12].wlan[0].mac.dcf.channelAccess.pendingQueue queueingTime:vector ETV
attr interpolationmode none
attr source queueingTime(packetPopped)
attr title "queueing times, vector"
attr unit s
vector 397 Scenario.node[12].wlan[0].mac.dcf.channelAccess.inProgressFrames queueLength:vector ETV
attr interpolationmode sample-hold
attr source "count(packetEnqueued) - count(packetDequeued)"
attr title "queue length, vector"
vector 398 Scenario.node[12].wlan[0].mac.dcf datarateSelected:vector ETV
attr interpolationmode none
attr title "datarates selected, vector"
vector 399 Scenario.node[12].wlan[0].mac packetSentToLower:vector(packetBytes) ETV
attr interpolationmode none
attr title "packets sent to lower layer, vector(packetBytes)"
vector 400 Scenario.node[12].wlan[0].mac.dcf frameSequenceActive:vector ETV
attr interpolationmode sample-hold
attr source count(frameSequenceStarted)-count(frameSequenceFinished)
attr title "frame sequence active, vector"
vector 401 Scenario.node[12].wlan[0].radio transmissionState:vector ETV
attr interpolationmode sample-hold
attr source transmissionStateChanged
attr title "Radio transmission state, vector"
vector 402 Scenario.node[12].wlan[0].mac.dcf packetSentToPeer:vector(packetBytes) ETV
attr interpolationmode none
attr title "packets sent, vector(packetBytes)"
vector 403 Scenario.node[12].wlan[0].mac.dcf packetSentToPeerMulticast:vector(packetBytes) ETV
attr interpolationmode none
attr source ieee80211Multicast(packetSentToPeer)
attr title "packets sent: multicast, vector(packetBytes)"
vector 404 Scenario.node[12].wlan[0].mac.dcf packetSentToPeerWithoutRetry:vector(packetBytes) ETV
attr interpolationmode none
attr source ieee80211NotRetry(packetSentToPeer)
attr title "packets sent: without retry, vector(packetBytes)"
vector 405 Scenario.node[12].wlan[0].mac.dcf.channelAccess.inProgressFrames queueingTime:vector ETV
attr interpolationmode none
attr source queueingTime(packetDequeued)
attr title "queueing times, vector"
vector 406 Scenario.node[4].wlan[0].mac packetReceivedFromLower:vector(packetBytes) ETV
attr interpolationmode none
attr title "packets received from lower layer, vector(packetBytes)"
vector 407 Scenario.node[4].wlan[0].mac.dcf packetReceivedFromPeer:vector(packetBytes) ETV
attr interpolationmode none
attr title "packets received, vector(packetBytes)"
vector 408 Scenario.node[4].wlan[0].mac.dcf packetReceivedFromPeerMulticast:vector(packetBytes) ETV
attr interpolationmode none
attr source ieee80211Multicast(packetReceivedFromPeer)
attr title "packets received: multicast, vector(packetBytes)"
vector 409 Scenario.node[4].wlan[0].mac.dcf packetReceivedFromPeerWithoutRetry:vector(packetBytes) ETV
attr interpolationmode none
attr source ieee80211NotRetry(packetReceivedFromPeer)
attr title "packets received: without retry, vector(packetBytes)"
vector 410 Scenario.node[4].wlan[0].mac packetSentToUpper:vector(packetBytes) ETV
attr interpolationmode none
attr title "packets sent to upper layer, vector(packetBytes)"
vector 411 Scenario.node[10].app[0] RequestReceiveTime:vector ETV
attr interpolationmode none
attr source receiveTime
attr title "request time, vector"
vector 412 Scenario.node[13].cache requestsReceived:vector ETV
attr interpolationmode none
attr source receive
attr title "requests received, vector"
vector 413 Scenario.node[13].cache hitRate:vector ETV
attr interpolationmode none
attr source hitRate
attr title "hit rate, vector"
vector 414 Scenario.node[13].dataServer requestsReceived:vector ETV
attr interpolationmode none
attr source receive
attr title "requests received, vector"
vector 415 Scenario.node[13].app[0] packetReceived:vector(packetBytes) ETV
attr interpolationmode none
attr source packetReceived
attr title "packets received, vector(packetBytes)"
vector 416 Scenario.node[13].app[0] throughput:vector ETV
attr source throughput(packetReceived)
attr title "throughput, vector"
attr unit bps
vector 417 Scenario.node[13].app[0] packetSent:vector(packetBytes) ETV
attr interpolationmode none
attr source packetSent
attr title "packets sent, vector(packetBytes)"
vector 418 Scenario.node[13].udp packetSent:vector(packetBytes) ETV
attr interpolationmode none
attr source packetSent
attr title "packets sent, vector(packetBytes)"
vector 419 Scenario.node[13].lo[0].lo rcvdPkFromHl:vector(packetBytes) ETV
attr interpolationmode none
attr source packetReceivedFromUpper
attr title "packets received from higher layer, vector(packetBytes)"
vector 420 Scenario.node[13].lo[0].lo passedUpPk:vector(packetBytes) ETV
attr interpolationmode none
attr source packetSentToUpper
attr title "packets passed to higher layer, vector(packetBytes)"
vector 421 Scenario.node[13].wlan[0].mac packetReceivedFromUpper:vector(packetBytes) ETV
attr interpolationmode none
attr title "packets received from upper layer, vector(packetBytes)"
vector 422 Scenario.node[13].wlan[0].mac.dcf.channelAccess.pendingQueue packetPushed:vector(packetBytes) ETV
attr interpolationmode none
attr title "packet pushed, vector(packetBytes)"
vector 423 Scenario.node[13].wlan[0].mac.dcf.channelAccess.pendingQueue queueLength:vector ETV
attr interpolationmode sample-hold
attr source "count(packetPushed) - count(packetPopped) - count(packetRemoved) - count(packetDropped)"
attr title "queue length, vector"
vector 424 Scenario.node[13].wlan[0].mac.dcf.channelAccess.contention backoffPeriodGenerated:vector ETV
attr interpolationmode none
attr title "backoff periods, vector"
vector 425 Scenario.node[13].wlan[0].mac.dcf.channelAccess.contention backoffActive:vector ETV
attr interpolationmode sample-hold
[...]
1965	69050	72.3	0
1965	69050	72.4	0
1965	69050	72.5	0
1965	69050	72.6	0
1965	69050	72.7	0
1965	69050	72.8	0
1965	69050	72.9	0
1965	69050	73	0
1965	69050	73.1	0
1965	69050	73.2	0
1965	69050	73.3	0
1965	69050	73.4	0
1965	69050	73.5	0
1965	69050	73.6	0
1965	69050	73.7	0
1965	69050	73.8	0
1965	69050	73.9	0
1965	69050	74	0
1965	69050	74.1	0
1965	69050	74.2	0
1965	69050	74.3	0
1965	69050	74.4	0
1965	69050	74.5	0
1965	69050	74.6	0
1965	69050	74.7	0
1965	69050	74.8	0
1965	69050	74.9	0
1965	69050	75	0
1965	69050	75.1	0
1965	69050	75.2	0
1965	69050	75.3	0
1965	69050	75.4	0
1965	69050	75.5	0
1965	69050	75.6	0
1965	69050	75.7	0
1965	69050	75.8	0
1965	69050	75.9	0
1965	69050	76	0
1965	69050	76.1	0
1965	69050	76.2	0
1965	69050	76.3	0
1965	69050	76.4	0
1965	69050	76.5	0
1965	69050	76.6	0
1965	69050	76.7	0
1965	69050	76.8	0
1965	69050	76.9	0
1965	69050	77	0
1965	69050	77.1	0
1965	69050	77.2	0
1965	69050	77.3	0
1965	69050	77.4	0
1965	69050	77.5	0
1965	69050	77.6	0
1965	69050	77.7	0
1965	69050	77.8	0
1965	69050	77.9	0
1965	69050	78	0
1965	69050	78.1	0
1965	69050	78.2	0
1965	69050	78.3	0
1965	69050	78.4	0
1965	69050	78.5	0
1965	69050	78.6	0
1965	69050	78.7	0
1965	69050	78.8	0
1965	69050	78.9	0
1965	69050	79	0
1965	69050	79.1	0
1965	69050	79.2	0
1965	69050	79.3	0
1965	69050	79.4	0
1965	69050	79.5	0
1965	69050	79.6	0
1965	69050	79.7	0
1965	69050	79.8	0
1965	69050	79.9	0
1965	69050	80	0
1965	69050	80.1	0
1965	69050	80.2	0
1965	69050	80.3	0
1965	69050	80.4	0
1965	69050	80.5	0
1965	69050	80.6	0
1965	69050	80.7	0
1965	69050	80.8	0
1965	69050	80.9	0
1965	69050	81	0
1965	69050	81.1	0
1965	69050	81.2	0
1965	69050	81.3	0
1965	69050	81.4	0
1965	69050	81.5	0
1965	69050	81.6	0
1965	69050	81.7	0
1965	69050	81.8	0
1965	69050	81.9	0
1965	69050	82	0
1965	69050	82.1	0
1965	69050	82.2	0
1965	69050	82.3	0
1965	69050	82.4	0
1965	69050	82.5	0
1965	69050	82.6	0
1965	69050	82.7	0
1965	69050	82.8	0
1965	69050	82.9	0
1965	69050	83	0
1965	69050	83.1	0
1965	69050	83.2	0
1965	69050	83.3	0
1965	69050	83.4	0
1965	69050	83.5	0
1965	69050	83.6	0
1965	69050	83.7	0
1965	69050	83.8	0
1965	69050	83.9	0
1965	69050	84	0
1965	69050	84.1	0
1965	69050	84.2	0
1965	69050	84.3	0
1965	69050	84.4	0
1965	69050	84.5	0
1965	69050	84.6	0
1965	69050	84.7	0
1965	69050	84.8	0
1965	69050	84.9	0
1965	69050	85	0
1965	69050	85.1	0
1965	69050	85.2	0
1965	69050	85.3	0
1965	69050	85.4	0
1965	69050	85.5	0
1965	69050	85.6	0
1965	69050	85.7	0
1965	69050	85.8	0
1965	69050	85.9	0
1965	69050	86	0
1965	69050	86.1	0
1965	69050	86.2	0
1965	69050	86.3	0
1965	69050	86.4	0
1965	69050	86.5	0
1965	69050	86.6	0
1965	69050	86.7	0
1965	69050	86.8	0
1965	69050	86.9	0
1965	69050	87	0
1965	69050	87.1	0
1965	69050	87.2	0
1965	69050	87.3	0
1965	69050	87.4	0
1965	69050	87.5	0
1965	69050	87.6	0
1965	69050	87.7	0
1965	69050	87.8	0
1965	69050	87.9	0
1965	69050	88	0
1965	69050	88.1	0
1965	69050	88.2	0
1965	69050	88.3	0
1965	69050	88.4	0
1965	69050	88.5	0
1965	69050	88.6	0
1965	69050	88.7	0
1965	69050	88.8	0
1965	69050	88.9	0
1965	69050	89	0
1965	69050	89.1	0
1965	69050	89.2	0
1965	69050	89.3	0
1965	69050	89.4	0
1965	69050	89.5	0
1965	69050	89.6	0
1965	69050	89.7	0
1965	69050	89.8	0
1965	69050	89.9	0
1965	69050	90	0
1965	69050	90.1	0
1965	69050	90.2	0
1965	69050	90.3	0
1965	69050	90.4	0
1965	69050	90.5	0
1965	69050	90.6	0
1965	69050	90.7	0
1965	69050	90.8	0
1965	69050	90.9	0
1965	69050	91	0
1965	69050	91.1	0
1965	69050	91.2	0
1965	69050	91.3	0
1965	69050	91.4	0
1965	69050	91.5	0
1965	69050	91.6	0
1965	69050	91.7	0
1965	69050	91.8	0
1965	69050	91.9	0
1965	69050	92	0
1965	69050	92.1	0
1965	69050	92.2	0
1965	69050	92.3	0
1965	69050	92.4	0
1965	69050	92.5	0
1965	69050	92.6	0
1965	69050	92.7	0
1965	69050	92.8	0
1965	69050	92.9	0
1965	69050	93	0
1965	69050	93.1	0
1965	69050	93.2	0
1965	69050	93.3	0
1965	69050	93.4	0
1965	69050	93.5	0
1965	69050	93.6	0
1965	69050	93.7	0
1965	69050	93.8	0
1965	69050	93.9	0
1965	69050	94	0
1965	69050	94.1	0
1965	69050	94.2	0
1965	69050	94.3	0
1965	69050	94.4	0
1965	69050	94.5	0
1965	69050	94.6	0
1965	69050	94.7	0
1965	69050	94.8	0
1965	69050	94.9	0
1965	69050	95	0
1965	69050	95.1	0
1965	69050	95.2	0
1965	69050	95.3	0
1965	69050	95.4	0
1965	69050	95.5	0
1965	69050	95.6	0
1965	69050	95.7	0
1965	69050	95.8	0
1965	69050	95.9	0
1965	69050	96	0
1965	69050	96.1	0
1965	69050	96.2	0
1965	69050	96.3	0
1965	69050	96.4	0
1965	69050	96.5	0
1965	69050	96.6	0
1965	69050	96.7	0
1965	69050	96.8	0
1965	69050	96.9	0
1965	69050	97	0
1965	69050	97.1	0
1965	69050	97.2	0
1965	69050	97.3	0
1965	69050	97.4	0
1965	69050	97.5	0
1965	69050	97.6	0
1965	69050	97.7	0
1965	69050	97.8	0
1965	69050	97.9	0
1965	69050	98	0
1965	69050	98.1	0
1965	69050	98.2	0
1965	69050	98.3	0
1965	69050	98.4	0
1965	69050	98.5	0
1965	69050	98.6	0
1965	69050	98.7	0
1965	69050	98.8	0
1965	69050	98.9	0
1965	69050	99	0
1965	69050	99.1	0
1965	69050	99.2	0
1965	69050	99.3	0
1965	69050	99.4	0
1965	69050	99.5	0
1965	69050	99.6	0
1965	69050	99.7	0
1965	69050	99.8	0
1965	69050	99.9	0
1965	69050	100	0
1965	69050	100.1	0
1965	69050	100.2	0
1965	69050	100.3	0
1965	69050	100.4	0
1965	69050	100.5	0
1965	69050	100.6	0
1965	69050	100.7	0
1965	69050	100.8	0
1965	69050	100.9	0
1965	69050	101	0
1965	69050	101.1	0
1965	69050	101.2	0
1965	69050	101.3	0
1965	69050	101.4	0
1965	69050	101.5	0
1965	69050	101.6	0
1965	69050	101.7	0
1965	69050	101.8	0
1965	69050	101.9	0
1965	69050	102	0
1965	69050	102.1	0
1965	69050	102.2	0
1965	69050	102.3	0
1965	69050	102.4	0
1965	69050	102.5	0
1965	69050	102.6	0
1965	69050	102.7	0
1965	69050	102.8	0
1965	69050	102.9	0
1965	69050	103	0
1965	69050	103.1	0
1965	69050	103.2	0
1965	69050	103.3	0
1965	69050	103.4	0
1965	69050	103.5	0
1965	69050	103.6	0
1965	69050	103.7	0
1965	69050	103.8	0
1965	69050	103.9	0
1965	69050	104	0
1965	69050	104.1	0
1965	69050	104.2	0
1965	69050	104.3	0
1965	69050	104.4	0
1965	69050	104.5	0
1965	69050	104.6	0
1965	69050	104.7	0
1965	69050	104.8	0
1965	69050	104.9	0
1965	69050	105	0
1965	69050	105.1	0
1965	69050	105.2	0
1965	69050	105.3	0
1965	69050	105.4	0
1965	69050	105.5	0
1965	69050	105.6	0
1965	69050	105.7	0
1965	69050	105.8	0
1965	69050	105.9	0
1965	69050	106	0
1965	69050	106.1	0
1965	69050	106.2	0
1965	69050	106.3	0
1965	69050	106.4	0
1965	69050	106.5	0
1965	69050	106.6	0
1965	69050	106.7	0
1965	69050	106.8	0
1965	69050	106.9	0
1965	69050	107	0
1965	69050	107.1	0
1965	69050	107.2	0
1965	69050	107.3	0
1965	69050	107.4	0
1965	69050	107.5	0
1965	69050	107.6	0
1965	69050	107.7	0
1965	69050	107.8	0
1965	69050	107.9	0
1965	69050	108	0
1965	69050	108.1	0
1965	69050	108.2	0
1965	69050	108.3	0
1965	69050	108.4	0
1965	69050	108.5	0
1965	69050	108.6	0
1965	69050	108.7	0
1965	69050	108.8	0
1965	69050	108.9	0
1965	69050	109	0
1965	69050	109.1	0
1965	69050	109.2	0
1965	69050	109.3	0
1965	69050	109.4	0
1965	69050	109.5	0
1965	69050	109.6	0
1965	69050	109.7	0
1965	69050	109.8	0
1965	69050	109.9	0
1965	69050	110	0
1965	69050	110.1	0
1965	69050	110.2	0
1965	69050	110.3	0
1965	69050	110.4	0
1965	69050	110.5	0
1965	69050	110.6	0
1965	69050	110.7	0
1965	69050	110.8	0
1965	69050	110.9	0
1965	69050	111	0
1965	69050	111.1	0
1965	69050	111.2	0
1965	69050	111.3	0
1965	69050	111.4	0
1965	69050	111.5	0
1965	69050	111.6	0
1965	69050	111.7	0
1965	69050	111.8	0
1965	69050	111.9	0
1965	69050	112	0
1965	69050	112.1	0
1965	69050	112.2	0
1965	69050	112.3	0
1965	69050	112.4	0
1965	69050	112.5	0
1965	69050	112.6	0
1965	69050	112.7	0
1965	69050	112.8	0
1965	69050	112.9	0
1965	69050	113	0
1965	69050	113.1	0
1965	69050	113.2	0
1965	69050	113.3	0
1965	69050	113.4	0
1965	69050	113.5	0
1965	69050	113.6	0
1965	69050	113.7	0
1965	69050	113.8	0
1965	69050	113.9	0
1965	69050	114	0
1965	69050	114.1	0
1965	69050	114.2	0
1965	69050	114.3	0
1965	69050	114.4	0
1965	69050	114.5	0
1965	69050	114.6	0
1965	69050	114.7	0
1965	69050	114.8	0
1965	69050	114.9	0
1965	69050	115	0
1965	69050	115.1	0
1965	69050	115.2	0
1965	69050	115.3	0
1965	69050	115.4	0
1965	69050	115.5	0
1965	69050	115.6	0
1965	69050	115.7	0
1965	69050	115.8	0
1965	69050	115.9	0
1965	69050	116	0
1965	69050	116.1	0
1965	69050	116.2	0
1965	69050	116.3	0
1965	69050	116.4	0
1965	69050	116.5	0
1965	69050	116.6	0
1965	69050	116.7	0
1965	69050	116.8	0
1965	69050	116.9	0
1965	69050	117	0
1965	69050	117.1	0
1965	69050	117.2	0
1965	69050	117.3	0
1965	69050	117.4	0
1965	69050	117.5	0
1965	69050	117.6	0
1965	69050	117.7	0
1965	69050	117.8	0
1965	69050	117.9	0
1965	69050	118	0
1965	69050	118.1	0
1965	69050	118.2	0
1965	69050	118.3	0
1965	69050	118.4	0
1965	69050	118.5	0
1965	69050	118.6	0
1965	69050	118.7	0
1965	69050	118.8	0
1965	69050	118.9	0
1965	69050	119	0
1965	69050	119.1	0
1965	69050	119.2	0
1965	69050	119.3	0
1965	69050	119.4	0
1965	69050	119.5	0
1965	69050	119.6	0
1965	69050	119.7	0
1965	69050	119.8	0
1965	69050	119.9	0
1965	69050	120	0
1965	69050	120.1	0
1965	69050	120.2	0
1965	69050	120.3	0
1965	69050	120.4	0
1965	69050	120.5	0
1965	69050	120.6	0
1965	69050	120.7	0
1965	69050	120.8	0
1965	69050	120.9	0
1965	69050	121	0
1965	69050	121.1	0
1965	69050	121.2	0
1965	69050	121.3	0
1965	69050	121.4	0
1965	69050	121.5	0
1965	69050	121.6	0
1965	69050	121.7	0
1965	69050	121.8	0
1965	69050	121.9	0
1965	69050	122	0
1965	69050	122.1	0
1965	69050	122.2	0
1965	69050	122.3	0
1965	69050	122.4	0
1965	69050	122.5	0
1965	69050	122.6	0
1965	69050	122.7	0
1965	69050	122.8	0
1965	69050	122.9	0
1965	69050	123	0
1965	69050	123.1	0
1965	69050	123.2	0
1965	69050	123.3	0
1965	69050	123.4	0
1965	69050	123.5	0
1965	69050	123.6	0
1965	69050	123.7	0
1965	69050	123.8	0
1965	69050	123.9	0
1965	69050	124	0
1965	69050	124.1	0
1965	69050	124.2	0
1965	69050	124.3	0
1965	69050	124.4	0
1965	69050	124.5	0
1965	69050	124.6	0
1965	69050	124.7	0
1965	69050	124.8	0
1965	69050	124.9	0
1965	69050	125	0
1965	69050	125.1	0
1965	69050	125.2	0
1965	69050	125.3	0
1965	69050	125.4	0
1965	69050	125.5	0
1965	69050	125.6	0
1965	69050	125.7	0
1965	69050	125.8	0
1965	69050	125.9	0
1965	69050	126	0
1965	69050	126.1	0
1965	69050	126.2	0
1965	69050	126.3	0
1965	69050	126.4	0
1965	69050	126.5	0
1965	69050	126.6	0
1965	69050	126.7	0
1965	69050	126.8	0
1965	69050	126.9	0
1965	69050	127	0
1965	69050	127.1	0
1965	69050	127.2	0
1965	69050	127.3	0
1965	69050	127.4	0
1965	69050	127.5	0
1965	69050	127.6	0
1965	69050	127.7	0
1965	69050	127.8	0
1965	69050	127.9	0
1965	69050	128	0
1965	69050	128.1	0
1965	69050	128.2	0
1965	69050	128.3	0
1965	69050	128.4	0
1965	69050	128.5	0
1965	69050	128.6	0
1965	69050	128.7	0
1965	69050	128.8	0
1965	69050	128.9	0
1965	69050	129	0
1965	69050	129.1	0
1965	69050	129.2	0
1965	69050	129.3	0
1965	69050	129.4	0
1965	69050	129.5	0
1965	69050	129.6	0
1965	69050	129.7	0
1965	69050	129.8	0
1965	69050	129.9	0
1965	69050	130	0
1965	69050	130.1	0
1965	69050	130.2	0
1965	69050	130.3	0
1965	69050	130.4	0
1965	69050	130.5	0
1965	69050	130.6	0
1965	69050	130.7	0
1965	69050	130.8	0
1965	69050	130.9	0
1965	69050	131	0
1965	69050	131.1	0
1965	69050	131.2	0
1965	69050	131.3	0
1965	69050	131.4	0
1965	69050	131.5	0
1965	69050	131.6	0
1965	69050	131.7	0
1965	69050	131.8	0
1965	69050	131.9	0
1965	69050	132	0
1965	69050	132.1	0
1965	69050	132.2	0
1965	69050	132.3	0
1965	69050	132.4	0
1965	69050	132.5	0
1965	69050	132.6	0
1965	69050	132.7	0
1965	69050	132.8	0
1965	69050	132.9	0
1965	69050	133	0
1965	69050	133.1	0
1965	69050	133.2	0
1965	69050	133.3	0
1965	69050	133.4	0
1965	69050	133.5	0
1965	69050	133.6	0
1965	69050	133.7	0
1965	69050	133.8	0
1965	69050	133.9	0
1965	69050	134	0
1965	69050	134.1	0
1965	69050	134.2	0
1965	69050	134.3	0
1965	69050	134.4	0
1965	69050	134.5	0
1965	69050	134.6	0
1965	69050	134.7	0
1965	69050	134.8	0
1965	69050	134.9	0
1965	69050	135	0
1965	69050	135.1	0
1965	69050	135.2	0
1965	69050	135.3	0
1965	69050	135.4	0
1965	69050	135.5	0
1965	69050	135.6	0
1965	69050	135.7	0
1965	69050	135.8	0
1965	69050	135.9	0
1965	69050	136	0
1965	69050	136.1	0
1965	69050	136.2	0
1965	69050	136.3	0
1965	69050	136.4	0
1965	69050	136.5	0
1965	69050	136.6	0
1965	69050	136.7	0
1965	69050	136.8	0
1965	69050	136.9	0
1965	69050	137	0
1965	69050	137.1	0
1965	69050	137.2	0
1965	69050	137.3	0
1965	69050	137.4	0
1965	69050	137.5	0
1965	69050	137.6	0
1965	69050	137.7	0
1965	69050	137.8	0
1965	69050	137.9	0
1965	69050	138	0
1965	69050	138.1	0
1965	69050	138.2	0
1965	69050	138.3	0
1965	69050	138.4	0
1965	69050	138.5	0
1965	69050	138.6	0
1965	69050	138.7	0
1965	69050	138.8	0
1965	69050	138.9	0
1965	69050	139	0
1965	69050	139.1	0
1965	69050	139.2	0
1965	69050	139.3	0
1965	69050	139.4	0
1965	69050	139.5	0
1965	69050	139.6	0
1965	69050	139.7	0
1965	69050	139.8	0
1965	69050	139.9	0
1965	69050	140	0
1965	69050	140.1	0
1965	69050	140.2	0
1965	69050	140.3	0
1965	69050	140.4	0
1965	69050	140.5	0
1965	69050	140.6	0
1965	69050	140.7	0
1965	69050	140.8	0
1965	69050	140.9	0
1965	69050	141	0
1965	69050	141.1	0
1965	69050	141.2	0
1965	69050	141.3	0
1965	69050	141.4	0
1965	69050	141.5	0
1965	69050	141.6	0
1965	69050	141.7	0
1965	69050	141.8	0
1965	69050	141.9	0
1965	69050	142	0
1965	69050	142.1	0
1965	69050	142.2	0
1965	69050	142.3	0
1965	69050	142.4	0
1965	69050	142.5	0
1965	69050	142.6	0
1965	69050	142.7	0
1965	69050	142.8	0
1965	69050	142.9	0
1965	69050	143	0
1965	69050	143.1	0
1965	69050	143.2	0
1965	69050	143.3	0
1965	69050	143.4	0
1965	69050	143.5	0
1965	69050	143.6	0
1965	69050	143.7	0
1965	69050	143.8	0
1965	69050	143.9	0
1965	69050	144	0
1965	69050	144.1	0
1965	69050	144.2	0
1965	69050	144.3	0
1965	69050	144.4	0
1965	69050	144.5	0
1965	69050	144.6	0
1965	69050	144.7	0
1965	69050	144.8	0
1965	69050	144.9	0
1965	69050	145	0
1965	69050	145.1	0
1965	69050	145.2	0
1965	69050	145.3	0
1965	69050	145.4	0
1965	69050	145.5	0
1965	69050	145.6	0
1965	69050	145.7	0
1965	69050	145.8	0
1965	69050	145.9	0
1965	69050	146	0
1965	69050	146.1	0
1965	69050	146.2	0
1965	69050	146.3	0
1965	69050	146.4	0
1965	69050	146.5	0
1965	69050	146.6	0
1965	69050	146.7	0
1965	69050	146.8	0
1965	69050	146.9	0
1965	69050	147	0
1965	69050	147.1	0
1965	69050	147.2	0
1965	69050	147.3	0
1965	69050	147.4	0
1965	69050	147.5	0
1965	69050	147.6	0
1965	69050	147.7	0
1965	69050	147.8	0
1965	69050	147.9	0
1965	69050	148	0
1965	69050	148.1	0
1965	69050	148.2	0
1965	69050	148.3	0
1965	69050	148.4	0
1965	69050	148.5	0
1965	69050	148.6	0
1965	69050	148.7	0
1965	69050	148.8	0
1965	69050	148.9	0
1965	69050	149	0
1965	69050	149.1	0
1965	69050	149.2	0
1965	69050	149.3	0
1965	69050	149.4	0
1965	69050	149.5	0
1965	69050	149.6	0
1965	69050	149.7	0
1965	69050	149.8	0
1965	69050	149.9	0
1965	69050	150	0
1965	69050	150.1	0
1965	69050	150.2	0
1965	69050	150.3	0
1965	69050	150.4	0
1965	69050	150.5	0
1965	69050	150.6	0
1965	69050	150.7	0
1965	69050	150.8	0
1965	69050	150.9	0
1965	69050	151	0
1965	69050	151.1	0
1965	69050	151.2	0
1965	69050	151.3	0
1965	69050	151.4	0
1965	69050	151.5	0
1965	69050	151.6	0
1965	69050	151.7	0
1965	69050	151.8	0
1965	69050	151.9	0
1965	69050	152	0
1965	69050	152.1	0
1965	69050	152.2	0
1965	69050	152.3	0
1965	69050	152.4	0
1965	69050	152.5	0
1965	69050	152.6	0
1965	69050	152.7	0
1965	69050	152.8	0
1965	69050	152.9	0
1965	69050	153	0
1965	69050	153.1	0
1965	69050	153.2	0
1965	69050	153.3	0
1965	69050	153.4	0
1965	69050	153.5	0
1965	69050	153.6	0
1965	69050	153.7	0
1965	69050	153.8	0
1965	69050	153.9	0
1965	69050	154	0
1965	69050	154.1	0
1965	69050	154.2	0
1965	69050	154.3	0
1965	69050	154.4	0
1965	69050	154.5	0
1965	69050	154.6	0
1965	69050	154.7	0
1965	69050	154.8	0
1965	69050	154.9	0
1965	69050	155	0
1965	69050	155.1	0
1965	69050	155.2	0
1965	69050	155.3	0
1965	69050	155.4	0
1965	69050	155.5	0
1965	69050	155.6	0
1965	69050	155.7	0
1965	69050	155.8	0
1965	69050	155.9	0
1965	69050	156	0
1965	69050	156.1	0
1965	69050	156.2	0
1965	69050	156.3	0
1965	69050	156.4	0
1965	69050	156.5	0
1965	69050	156.6	0
1965	69050	156.7	0
1965	69050	156.8	0
1965	69050	156.9	0
1965	69050	157	0
1965	69050	157.1	0
1965	69050	157.2	0
1965	69050	157.3	0
1965	69050	157.4	0
1965	69050	157.5	0
1965	69050	157.6	0
1965	69050	157.7	0
1965	69050	157.8	0
1965	69050	157.9	0
1965	69050	158	0
1965	69050	158.1	0
1965	69050	158.2	0
1965	69050	158.3	0
1965	69050	158.4	0
1965	69050	158.5	0
1965	69050	158.6	0
1965	69050	158.7	0
1965	69050	158.8	0
1965	69050	158.9	0
1965	69050	159	0
1965	69050	159.1	0
1965	69050	159.2	0
1965	69050	159.3	0
1965	69050	159.4	0
1965	69050	159.5	0
1965	69050	159.6	0
1965	69050	159.7	0
1965	69050	159.8	0
1965	69050	159.9	0
1965	69050	160	0
1965	69050	160.1	0
1965	69050	160.2	0
1965	69050	160.3	0
1965	69050	160.4	0
1965	69050	160.5	0
1965	69050	160.6	0
1965	69050	160.7	0
1965	69050	160.8	0
1965	69050	160.9	0
1965	69050	161	0
1965	69050	161.1	0
1965	69050	161.2	0
1965	69050	161.3	0
1965	69050	161.4	0
1965	69050	161.5	0
1965	69050	161.6	0
1965	69050	161.7	0
1965	69050	161.8	0
1965	69050	161.9	0
1965	69050	162	0
1965	69050	162.1	0
1965	69050	162.2	0
1965	69050	162.3	0
1965	69050	162.4	0
1965	69050	162.5	0
1965	69050	162.6	0
1965	69050	162.7	0
1965	69050	162.8	0
1965	69050	162.9	0
1965	69050	163	0
1965	69050	163.1	0
1965	69050	163.2	0
1965	69050	163.3	0
1965	69050	163.4	0
1965	69050	163.5	0
1965	69050	163.6	0
1965	69050	163.7	0
1965	69050	163.8	0
1965	69050	163.9	0
1965	69050	164	0
1965	69050	164.1	0
1965	69050	164.2	0
1965	69050	164.3	0
1965	69050	164.4	0
1965	69050	164.5	0
1965	69050	164.6	0
1965	69050	164.7	0
1965	69050	164.8	0
1965	69050	164.9	0
1965	69050	165	0
1965	69050	165.1	0
1965	69050	165.2	0
1965	69050	165.3	0
1965	69050	165.4	0
1965	69050	165.5	0
1965	69050	165.6	0
1965	69050	165.7	0
1965	69050	165.8	0
1965	69050	165.9	0
1965	69050	166	0
1965	69050	166.1	0
1965	69050	166.2	0
1965	69050	166.3	0
1965	69050	166.4	0
1965	69050	166.5	0
1965	69050	166.6	0
1965	69050	166.7	0
1965	69050	166.8	0
1965	69050	166.9	0
1965	69050	167	0
1965	69050	167.1	0
1965	69050	167.2	0
1965	69050	167.3	0
1965	69050	167.4	0
1965	69050	167.5	0
1965	69050	167.6	0
1965	69050	167.7	0
1965	69050	167.8	0
1965	69050	167.9	0
1965	69050	168	0
1965	69050	168.1	0
1965	69050	168.2	0
1965	69050	168.3	0
1965	69050	168.4	0
1965	69050	168.5	0
1965	69050	168.6	0
1965	69050	168.7	0
1965	69050	168.8	0
1965	69050	168.9	0
1965	69050	169	0
1965	69050	169.1	0
1965	69050	169.2	0
1965	69050	169.3	0
1965	69050	169.4	0
1965	69050	169.5	0
1965	69050	169.6	0
1965	69050	169.7	0
1965	69050	169.8	0
1965	69050	169.9	0
1965	69050	170	0
1965	69050	170.1	0
1965	69050	170.2	0
1965	69050	170.3	0
1965	69050	170.4	0
1965	69050	170.5	0
1965	69050	170.6	0
1965	69050	170.7	0
1965	69050	170.8	0
1965	69050	170.9	0
1965	69050	171	0
1965	69050	171.1	0
1965	69050	171.2	0
1965	69050	171.3	0
1965	69050	171.4	0
1965	69050	171.5	0
1965	69050	171.6	0
1965	69050	171.7	0
1965	69050	171.8	0
1965	69050	171.9	0
1965	69050	172	0
1965	69050	172.1	0
1965	69050	172.2	0
1965	69050	172.3	0
1965	69050	172.4	0
1965	69050	172.5	0
1965	69050	172.6	0
1965	69050	172.7	0
1965	69050	172.8	0
1965	69050	172.9	0
1965	69050	173	0
1965	69050	173.1	0
1965	69050	173.2	0
1965	69050	173.3	0
1965	69050	173.4	0
1965	69050	173.5	0
1965	69050	173.6	0
1965	69050	173.7	0
1965	69050	173.8	0
1965	69050	173.9	0
1965	69050	174	0
1965	69050	174.1	0
1965	69050	174.2	0
1965	69050	174.3	0
1965	69050	174.4	0
1965	69050	174.5	0
1965	69050	174.6	0
1965	69050	174.7	0
1965	69050	174.8	0
1965	69050	174.9	0
1965	69050	175	0
1965	69050	175.1	0
1965	69050	175.2	0
1965	69050	175.3	0
1965	69050	175.4	0
1965	69050	175.5	0
1965	69050	175.6	0
1965	69050	175.7	0
1965	69050	175.8	0
1965	69050	175.9	0
1965	69050	176	0
1965	69050	176.1	0
1965	69050	176.2	0
1965	69050	176.3	0
1965	69050	176.4	0
1965	69050	176.5	0
1965	69050	176.6	0
1965	69050	176.7	0
1965	69050	176.8	0
1965	69050	176.9	0
1965	69050	177	0
1965	69050	177.1	0
1965	69050	177.2	0
1965	69050	177.3	0
1965	69050	177.4	0
1965	69050	177.5	0
1965	69050	177.6	0
1965	69050	177.7	0
1965	69050	177.8	0
1965	69050	177.9	0
1965	69050	178	0
1965	69050	178.1	0
1965	69050	178.2	0
1965	69050	178.3	0
1965	69050	178.4	0
1965	69050	178.5	0
1965	69050	178.6	0
1965	69050	178.7	0
1965	69050	178.8	0
1965	69050	178.9	0
1965	69050	179	0
1965	69050	179.1	0
1965	69050	179.2	0
1965	69050	179.3	0
1965	69050	179.4	0
1965	69050	179.5	0
1965	69050	179.6	0
1965	69050	179.7	0
1965	69050	179.8	0
1965	69050	179.9	0
1965	69050	180	0

