version 2
run General-0-20220424-19:11:27-9424
attr configname General
attr datetime 20220424-19:11:27
attr experiment General
attr inifile omnetpp.ini
attr iterationvars ""
attr iterationvarsf ""
attr measurement ""
attr network Scenario
attr processid 9424
attr repetition 0
attr replication #0
attr resultdir results
attr runnumber 0
attr seedset 0
param *.node[*].numApps 1
param *.node[*].app[0].typename "\"v2v_caching.veins_inet.VeinsInetSampleApplication\""
param *.node[*].app[0].interface "\"wlan0\""
param *.node[*].wlan[0].opMode "\"p\""
param *.node[*].wlan[0].radio.typename "\"Ieee80211DimensionalRadio\""
param *.node[*].wlan[0].radio.bandName "\"5.9 GHz\""
param *.node[*].wlan[0].radio.channelNumber 3
param *.node[*].wlan[0].radio.transmitter.power 20mW
param *.node[*].wlan[0].radio.bandwidth "10 MHz"
param *.node[*].wlan[*].radio.antenna.mobility.typename "\"AttachedMobility\""
param *.node[*].wlan[*].radio.antenna.mobility.mobilityModule "\"^.^.^.^.mobility\""
param *.node[*].wlan[*].radio.antenna.mobility.offsetX -2.5m
param *.node[*].wlan[*].radio.antenna.mobility.offsetZ 1.5m
param *.node[*].wlan[*].radio.antenna.mobility.constraintAreaMinX 0m
param *.node[*].wlan[*].radio.antenna.mobility.constraintAreaMaxX 0m
param *.node[*].wlan[*].radio.antenna.mobility.constraintAreaMinY 0m
param *.node[*].wlan[*].radio.antenna.mobility.constraintAreaMaxY 0m
param *.node[*].wlan[*].radio.antenna.mobility.constraintAreaMinZ 0m
param *.node[*].wlan[*].radio.antenna.mobility.constraintAreaMaxZ 0m
param *.node[*].ipv4.configurator.typename "\"HostAutoConfigurator\""
param *.node[*].ipv4.configurator.interfaces "\"wlan0\""
param *.node[*].ipv4.configurator.mcastGroups "\"224.0.0.1\""
param *.node[*].mobility.typename "\"VeinsInetMobility\""
param *.manager.updateInterval 0.1s
param *.manager.host "\"localhost\""
param *.manager.port 9999
param *.manager.autoShutdown true
param *.manager.launchConfig "xmldoc(\"a14.launchd.xml\")"
param *.manager.moduleType "\"v2v_caching.veins_inet.VeinsInetCar\""
param *.radioMedium.obstacleLoss.typename "\"IdealObstacleLoss\""

vector 0 Scenario.node[0].wlan[0].radio radioMode:vector ETV
attr interpolationmode sample-hold
attr source radioModeChanged
attr title "Radio mode, vector"
vector 1 Scenario.node[0].wlan[0].radio radioChannel:vector ETV
attr interpolationmode sample-hold
attr source radioChannelChanged
attr title "Radio channel, vector"
vector 2 Scenario.node[0].wlan[0].radio receptionState:vector ETV
attr interpolationmode sample-hold
attr source receptionStateChanged
attr title "Radio reception state, vector"
vector 3 Scenario.node[0].wlan[0].mac.dcf.recoveryProcedure contentionWindowChanged:vector ETV
attr interpolationmode sample-hold
attr title "contention window, vector"
vector 4 Scenario.node[0].cache requestsReceived:vector ETV
attr interpolationmode none
attr source receive
attr title "requests received, vector"
vector 5 Scenario.node[0].cache hitRate:vector ETV
attr interpolationmode none
attr source hitRate
attr title "hit rate, vector"
vector 6 Scenario.node[1].wlan[0].radio radioMode:vector ETV
attr interpolationmode sample-hold
attr source radioModeChanged
attr title "Radio mode, vector"
vector 7 Scenario.node[1].wlan[0].radio radioChannel:vector ETV
attr interpolationmode sample-hold
attr source radioChannelChanged
attr title "Radio channel, vector"
vector 8 Scenario.node[1].wlan[0].radio receptionState:vector ETV
attr interpolationmode sample-hold
attr source receptionStateChanged
attr title "Radio reception state, vector"
vector 9 Scenario.node[1].wlan[0].mac.dcf.recoveryProcedure contentionWindowChanged:vector ETV
attr interpolationmode sample-hold
attr title "contention window, vector"
vector 10 Scenario.node[0].dataServer requestsReceived:vector ETV
attr interpolationmode none
attr source receive
attr title "requests received, vector"
vector 11 Scenario.node[0].app[0] packetReceived:vector(packetBytes) ETV
attr interpolationmode none
attr source packetReceived
attr title "packets received, vector(packetBytes)"
vector 12 Scenario.node[0].app[0] throughput:vector ETV
attr source throughput(packetReceived)
attr title "throughput, vector"
attr unit bps
vector 13 Scenario.node[0].app[0] RequestReceiveTime:vector ETV
attr interpolationmode none
attr source receiveTime
attr title "request time, vector"
vector 14 Scenario.node[1].cache requestsReceived:vector ETV
attr interpolationmode none
attr source receive
attr title "requests received, vector"
vector 15 Scenario.node[1].cache hitRate:vector ETV
attr interpolationmode none
attr source hitRate
attr title "hit rate, vector"
vector 16 Scenario.node[1].dataServer requestsReceived:vector ETV
attr interpolationmode none
attr source receive
attr title "requests received, vector"
vector 17 Scenario.node[1].app[0] packetReceived:vector(packetBytes) ETV
attr interpolationmode none
attr source packetReceived
attr title "packets received, vector(packetBytes)"
vector 18 Scenario.node[1].app[0] throughput:vector ETV
attr source throughput(packetReceived)
attr title "throughput, vector"
attr unit bps
vector 19 Scenario.node[1].app[0] RequestReceiveTime:vector ETV
attr interpolationmode none
attr source receiveTime
attr title "request time, vector"
vector 20 Scenario.node[1].app[0] packetSent:vector(packetBytes) ETV
attr interpolationmode none
attr source packetSent
attr title "packets sent, vector(packetBytes)"
vector 21 Scenario.node[1].udp packetSent:vector(packetBytes) ETV
attr interpolationmode none
attr source packetSent
attr title "packets sent, vector(packetBytes)"
vector 22 Scenario.node[1].lo[0].lo rcvdPkFromHl:vector(packetBytes) ETV
attr interpolationmode none
attr source packetReceivedFromUpper
attr title "packets received from higher layer, vector(packetBytes)"
vector 23 Scenario.node[1].lo[0].lo passedUpPk:vector(packetBytes) ETV
attr interpolationmode none
attr source packetSentToUpper
attr title "packets passed to higher layer, vector(packetBytes)"
vector 24 Scenario.node[1].wlan[0].mac packetReceivedFromUpper:vector(packetBytes) ETV
attr interpolationmode none
attr title "packets received from upper layer, vector(packetBytes)"
vector 25 Scenario.node[1].wlan[0].mac.dcf.channelAccess.pendingQueue packetPushed:vector(packetBytes) ETV
attr interpolationmode none
attr title "packet pushed, vector(packetBytes)"
vector 26 Scenario.node[1].wlan[0].mac.dcf.channelAccess.pendingQueue queueLength:vector ETV
attr interpolationmode sample-hold
attr source "count(packetPushed) - count(packetPopped) - count(packetRemoved) - count(packetDropped)"
attr title "queue length, vector"
vector 27 Scenario.node[1].wlan[0].mac.dcf.channelAccess.contention backoffPeriodGenerated:vector ETV
attr interpolationmode none
attr title "backoff periods, vector"
vector 28 Scenario.node[1].wlan[0].mac.dcf.channelAccess.contention backoffActive:vector ETV
attr interpolationmode sample-hold
attr source count(backoffStarted)-count(backoffStopped)
attr title "backoff active, vector"
vector 29 Scenario.node[1].udp packetReceived:vector(packetBytes) ETV
attr interpolationmode none
attr source packetReceived
attr title "packets received, vector(packetBytes)"
vector 30 Scenario.node[1].udp passedUpPk:vector(count) ETV
attr interpolationmode none
attr source packetSentToUpper
attr title "packets passed up, vector(count)"
vector 31 Scenario.node[1].wlan[0].mac.dcf.channelAccess.pendingQueue packetPopped:vector(packetBytes) ETV
attr interpolationmode none
attr title "packet popped, vector(packetBytes)"
vector 32 Scenario.node[1].wlan[0].mac.dcf.channelAccess.pendingQueue queueingTime:vector ETV
attr interpolationmode none
attr source queueingTime(packetPopped)
attr title "queueing times, vector"
attr unit s
vector 33 Scenario.node[1].wlan[0].mac.dcf.channelAccess.inProgressFrames queueLength:vector ETV
attr interpolationmode sample-hold
attr source "count(packetEnqueued) - count(packetDequeued)"
attr title "queue length, vector"
vector 34 Scenario.node[1].wlan[0].mac.dcf datarateSelected:vector ETV
attr interpolationmode none
attr title "datarates selected, vector"
vector 35 Scenario.node[1].wlan[0].mac packetSentToLower:vector(packetBytes) ETV
attr interpolationmode none
attr title "packets sent to lower layer, vector(packetBytes)"
vector 36 Scenario.node[1].wlan[0].mac.dcf frameSequenceActive:vector ETV
attr interpolationmode sample-hold
attr source count(frameSequenceStarted)-count(frameSequenceFinished)
attr title "frame sequence active, vector"
vector 37 Scenario.node[1].wlan[0].radio transmissionState:vector ETV
attr interpolationmode sample-hold
attr source transmissionStateChanged
attr title "Radio transmission state, vector"
vector 38 Scenario.node[1].wlan[0].mac.dcf packetSentToPeer:vector(packetBytes) ETV
attr interpolationmode none
attr title "packets sent, vector(packetBytes)"
vector 39 Scenario.node[1].wlan[0].mac.dcf packetSentToPeerMulticast:vector(packetBytes) ETV
attr interpolationmode none
attr source ieee80211Multicast(packetSentToPeer)
attr title "packets sent: multicast, vector(packetBytes)"
vector 40 Scenario.node[1].wlan[0].mac.dcf packetSentToPeerWithoutRetry:vector(packetBytes) ETV
attr interpolationmode none
attr source ieee80211NotRetry(packetSentToPeer)
attr title "packets sent: without retry, vector(packetBytes)"
vector 41 Scenario.node[1].wlan[0].mac.dcf.channelAccess.inProgressFrames queueingTime:vector ETV
attr interpolationmode none
attr source queueingTime(packetDequeued)
attr title "queueing times, vector"
vector 42 Scenario.node[2].wlan[0].radio radioMode:vector ETV
attr interpolationmode sample-hold
attr source radioModeChanged
attr title "Radio mode, vector"
vector 43 Scenario.node[2].wlan[0].radio radioChannel:vector ETV
attr interpolationmode sample-hold
attr source radioChannelChanged
attr title "Radio channel, vector"
vector 44 Scenario.node[2].wlan[0].radio receptionState:vector ETV
attr interpolationmode sample-hold
attr source receptionStateChanged
attr title "Radio reception state, vector"
vector 45 Scenario.node[2].wlan[0].mac.dcf.recoveryProcedure contentionWindowChanged:vector ETV
attr interpolationmode sample-hold
attr title "contention window, vector"
vector 46 Scenario.node[2].cache requestsReceived:vector ETV
attr interpolationmode none
attr source receive
attr title "requests received, vector"
vector 47 Scenario.node[2].cache hitRate:vector ETV
attr interpolationmode none
attr source hitRate
attr title "hit rate, vector"
vector 48 Scenario.node[2].dataServer requestsReceived:vector ETV
attr interpolationmode none
attr source receive
attr title "requests received, vector"
vector 49 Scenario.node[2].app[0] packetReceived:vector(packetBytes) ETV
attr interpolationmode none
attr source packetReceived
attr title "packets received, vector(packetBytes)"
vector 50 Scenario.node[2].app[0] throughput:vector ETV
attr source throughput(packetReceived)
attr title "throughput, vector"
attr unit bps
vector 51 Scenario.node[2].app[0] RequestReceiveTime:vector ETV
attr interpolationmode none
attr source receiveTime
attr title "request time, vector"
vector 52 Scenario.node[0].app[0] packetSent:vector(packetBytes) ETV
attr interpolationmode none
attr source packetSent
attr title "packets sent, vector(packetBytes)"
vector 53 Scenario.node[0].udp packetSent:vector(packetBytes) ETV
attr interpolationmode none
attr source packetSent
attr title "packets sent, vector(packetBytes)"
vector 54 Scenario.node[0].lo[0].lo rcvdPkFromHl:vector(packetBytes) ETV
attr interpolationmode none
attr source packetReceivedFromUpper
attr title "packets received from higher layer, vector(packetBytes)"
vector 55 Scenario.node[0].lo[0].lo passedUpPk:vector(packetBytes) ETV
attr interpolationmode none
attr source packetSentToUpper
attr title "packets passed to higher layer, vector(packetBytes)"
vector 56 Scenario.node[0].wlan[0].mac packetReceivedFromUpper:vector(packetBytes) ETV
attr interpolationmode none
attr title "packets received from upper layer, vector(packetBytes)"
vector 57 Scenario.node[0].wlan[0].mac.dcf.channelAccess.pendingQueue packetPushed:vector(packetBytes) ETV
attr interpolationmode none
attr title "packet pushed, vector(packetBytes)"
vector 58 Scenario.node[0].wlan[0].mac.dcf.channelAccess.pendingQueue queueLength:vector ETV
attr interpolationmode sample-hold
attr source "count(packetPushed) - count(packetPopped) - count(packetRemoved) - count(packetDropped)"
attr title "queue length, vector"
vector 59 Scenario.node[0].wlan[0].mac.dcf.channelAccess.contention backoffPeriodGenerated:vector ETV
attr interpolationmode none
attr title "backoff periods, vector"
vector 60 Scenario.node[0].wlan[0].mac.dcf.channelAccess.contention backoffActive:vector ETV
attr interpolationmode sample-hold
attr source count(backoffStarted)-count(backoffStopped)
attr title "backoff active, vector"
vector 61 Scenario.node[0].udp packetReceived:vector(packetBytes) ETV
attr interpolationmode none
attr source packetReceived
attr title "packets received, vector(packetBytes)"
vector 62 Scenario.node[0].udp passedUpPk:vector(count) ETV
attr interpolationmode none
attr source packetSentToUpper
attr title "packets passed up, vector(count)"
vector 63 Scenario.node[0].wlan[0].mac.dcf.channelAccess.pendingQueue packetPopped:vector(packetBytes) ETV
attr interpolationmode none
attr title "packet popped, vector(packetBytes)"
vector 64 Scenario.node[0].wlan[0].mac.dcf.channelAccess.pendingQueue queueingTime:vector ETV
attr interpolationmode none
attr source queueingTime(packetPopped)
attr title "queueing times, vector"
attr unit s
vector 65 Scenario.node[0].wlan[0].mac.dcf.channelAccess.inProgressFrames queueLength:vector ETV
attr interpolationmode sample-hold
attr source "count(packetEnqueued) - count(packetDequeued)"
attr title "queue length, vector"
vector 66 Scenario.node[0].wlan[0].mac.dcf datarateSelected:vector ETV
attr interpolationmode none
attr title "datarates selected, vector"
vector 67 Scenario.node[0].wlan[0].mac packetSentToLower:vector(packetBytes) ETV
attr interpolationmode none
attr title "packets sent to lower layer, vector(packetBytes)"
vector 68 Scenario.node[0].wlan[0].mac.dcf frameSequenceActive:vector ETV
attr interpolationmode sample-hold
attr source count(frameSequenceStarted)-count(frameSequenceFinished)
attr title "frame sequence active, vector"
vector 69 Scenario.node[0].wlan[0].radio transmissionState:vector ETV
attr interpolationmode sample-hold
attr source transmissionStateChanged
attr title "Radio transmission state, vector"
vector 70 Scenario.node[0].wlan[0].mac.dcf packetSentToPeer:vector(packetBytes) ETV
attr interpolationmode none
attr title "packets sent, vector(packetBytes)"
vector 71 Scenario.node[0].wlan[0].mac.dcf packetSentToPeerMulticast:vector(packetBytes) ETV
attr interpolationmode none
attr source ieee80211Multicast(packetSentToPeer)
attr title "packets sent: multicast, vector(packetBytes)"
vector 72 Scenario.node[0].wlan[0].mac.dcf packetSentToPeerWithoutRetry:vector(packetBytes) ETV
attr interpolationmode none
attr source ieee80211NotRetry(packetSentToPeer)
attr title "packets sent: without retry, vector(packetBytes)"
vector 73 Scenario.node[0].wlan[0].mac.dcf.channelAccess.inProgressFrames queueingTime:vector ETV
attr interpolationmode none
attr source queueingTime(packetDequeued)
attr title "queueing times, vector"
vector 74 Scenario.node[2].app[0] packetSent:vector(packetBytes) ETV
attr interpolationmode none
attr source packetSent
attr title "packets sent, vector(packetBytes)"
vector 75 Scenario.node[2].udp packetSent:vector(packetBytes) ETV
attr interpolationmode none
attr source packetSent
attr title "packets sent, vector(packetBytes)"
vector 76 Scenario.node[2].lo[0].lo rcvdPkFromHl:vector(packetBytes) ETV
attr interpolationmode none
attr source packetReceivedFromUpper
attr title "packets received from higher layer, vector(packetBytes)"
vector 77 Scenario.node[2].lo[0].lo passedUpPk:vector(packetBytes) ETV
attr interpolationmode none
attr source packetSentToUpper
attr title "packets passed to higher layer, vector(packetBytes)"
vector 78 Scenario.node[2].wlan[0].mac packetReceivedFromUpper:vector(packetBytes) ETV
attr interpolationmode none
attr title "packets received from upper layer, vector(packetBytes)"
vector 79 Scenario.node[2].wlan[0].mac.dcf.channelAccess.pendingQueue packetPushed:vector(packetBytes) ETV
attr interpolationmode none
attr title "packet pushed, vector(packetBytes)"
vector 80 Scenario.node[2].wlan[0].mac.dcf.channelAccess.pendingQueue queueLength:vector ETV
attr interpolationmode sample-hold
attr source "count(packetPushed) - count(packetPopped) - count(packetRemoved) - count(packetDropped)"
attr title "queue length, vector"
vector 81 Scenario.node[2].wlan[0].mac.dcf.channelAccess.contention backoffPeriodGenerated:vector ETV
attr interpolationmode none
attr title "backoff periods, vector"
vector 82 Scenario.node[2].wlan[0].mac.dcf.channelAccess.contention backoffActive:vector ETV
attr interpolationmode sample-hold
attr source count(backoffStarted)-count(backoffStopped)
attr title "backoff active, vector"
vector 83 Scenario.node[2].udp packetReceived:vector(packetBytes) ETV
attr interpolationmode none
attr source packetReceived
attr title "packets received, vector(packetBytes)"
vector 84 Scenario.node[2].udp passedUpPk:vector(count) ETV
attr interpolationmode none
attr source packetSentToUpper
attr title "packets passed up, vector(count)"
vector 85 Scenario.node[2].wlan[0].mac.dcf.channelAccess.pendingQueue packetPopped:vector(packetBytes) ETV
attr interpolationmode none
attr title "packet popped, vector(packetBytes)"
vector 86 Scenario.node[2].wlan[0].mac.dcf.channelAccess.pendingQueue queueingTime:vector ETV
attr interpolationmode none
attr source queueingTime(packetPopped)
attr title "queueing times, vector"
attr unit s
vector 87 Scenario.node[2].wlan[0].mac.dcf.channelAccess.inProgressFrames queueLength:vector ETV
attr interpolationmode sample-hold
attr source "count(packetEnqueued) - count(packetDequeued)"
attr title "queue length, vector"
vector 88 Scenario.node[2].wlan[0].mac.dcf datarateSelected:vector ETV
attr interpolationmode none
attr title "datarates selected, vector"
vector 89 Scenario.node[2].wlan[0].mac packetSentToLower:vector(packetBytes) ETV
attr interpolationmode none
attr title "packets sent to lower layer, vector(packetBytes)"
vector 90 Scenario.node[2].wlan[0].mac.dcf frameSequenceActive:vector ETV
attr interpolationmode sample-hold
attr source count(frameSequenceStarted)-count(frameSequenceFinished)
attr title "frame sequence active, vector"
vector 91 Scenario.node[2].wlan[0].radio transmissionState:vector ETV
attr interpolationmode sample-hold
attr source transmissionStateChanged
attr title "Radio transmission state, vector"
vector 92 Scenario.node[2].wlan[0].mac.dcf packetSentToPeer:vector(packetBytes) ETV
attr interpolationmode none
attr title "packets sent, vector(packetBytes)"
vector 93 Scenario.node[2].wlan[0].mac.dcf packetSentToPeerMulticast:vector(packetBytes) ETV
attr interpolationmode none
attr source ieee80211Multicast(packetSentToPeer)
attr title "packets sent: multicast, vector(packetBytes)"
vector 94 Scenario.node[2].wlan[0].mac.dcf packetSentToPeerWithoutRetry:vector(packetBytes) ETV
attr interpolationmode none
attr source ieee80211NotRetry(packetSentToPeer)
attr title "packets sent: without retry, vector(packetBytes)"
vector 95 Scenario.node[2].wlan[0].mac.dcf.channelAccess.inProgressFrames queueingTime:vector ETV
attr interpolationmode none
attr source queueingTime(packetDequeued)
attr title "queueing times, vector"
vector 96 Scenario.node[0].wlan[0].mac packetReceivedFromLower:vector(packetBytes) ETV
attr interpolationmode none
attr title "packets received from lower layer, vector(packetBytes)"
vector 97 Scenario.node[0].wlan[0].mac.dcf packetReceivedFromPeer:vector(packetBytes) ETV
attr interpolationmode none
attr title "packets received, vector(packetBytes)"
vector 98 Scenario.node[0].wlan[0].mac.dcf packetReceivedFromPeerMulticast:vector(packetBytes) ETV
attr interpolationmode none
attr source ieee80211Multicast(packetReceivedFromPeer)
attr title "packets received: multicast, vector(packetBytes)"
vector 99 Scenario.node[0].wlan[0].mac.dcf packetReceivedFromPeerWithoutRetry:vector(packetBytes) ETV
attr interpolationmode none
attr source ieee80211NotRetry(packetReceivedFromPeer)
attr title "packets received: without retry, vector(packetBytes)"
vector 100 Scenario.node[0].wlan[0].mac packetSentToUpper:vector(packetBytes) ETV
attr interpolationmode none
attr title "packets sent to upper layer, vector(packetBytes)"
vector 101 Scenario.node[2].wlan[0].mac packetReceivedFromLower:vector(packetBytes) ETV
attr interpolationmode none
attr title "packets received from lower layer, vector(packetBytes)"
vector 102 Scenario.node[2].wlan[0].mac.dcf packetReceivedFromPeer:vector(packetBytes) ETV
attr interpolationmode none
attr title "packets received, vector(packetBytes)"
vector 103 Scenario.node[2].wlan[0].mac.dcf packetReceivedFromPeerMulticast:vector(packetBytes) ETV
attr interpolationmode none
attr source ieee80211Multicast(packetReceivedFromPeer)
attr title "packets received: multicast, vector(packetBytes)"
vector 104 Scenario.node[2].wlan[0].mac.dcf packetReceivedFromPeerWithoutRetry:vector(packetBytes) ETV
attr interpolationmode none
attr source ieee80211NotRetry(packetReceivedFromPeer)
attr title "packets received: without retry, vector(packetBytes)"
vector 105 Scenario.node[2].wlan[0].mac packetSentToUpper:vector(packetBytes) ETV
attr interpolationmode none
attr title "packets sent to upper layer, vector(packetBytes)"
vector 106 Scenario.node[3].wlan[0].radio radioMode:vector ETV
attr interpolationmode sample-hold
attr source radioModeChanged
attr title "Radio mode, vector"
vector 107 Scenario.node[3].wlan[0].radio radioChannel:vector ETV
attr interpolationmode sample-hold
attr source radioChannelChanged
attr title "Radio channel, vector"
vector 108 Scenario.node[3].wlan[0].radio receptionState:vector ETV
attr interpolationmode sample-hold
attr source receptionStateChanged
attr title "Radio reception state, vector"
vector 109 Scenario.node[3].wlan[0].mac.dcf.recoveryProcedure contentionWindowChanged:vector ETV
attr interpolationmode sample-hold
attr title "contention window, vector"
vector 110 Scenario.node[4].wlan[0].radio radioMode:vector ETV
attr interpolationmode sample-hold
attr source radioModeChanged
attr title "Radio mode, vector"
vector 111 Scenario.node[4].wlan[0].radio radioChannel:vector ETV
attr interpolationmode sample-hold
attr source radioChannelChanged
attr title "Radio channel, vector"
vector 112 Scenario.node[4].wlan[0].radio receptionState:vector ETV
attr interpolationmode sample-hold
attr source receptionStateChanged
attr title "Radio reception state, vector"
vector 113 Scenario.node[4].wlan[0].mac.dcf.recoveryProcedure contentionWindowChanged:vector ETV
attr interpolationmode sample-hold
attr title "contention window, vector"
vector 114 Scenario.node[4].wlan[0].mac packetReceivedFromLower:vector(packetBytes) ETV
attr interpolationmode none
attr title "packets received from lower layer, vector(packetBytes)"
vector 115 Scenario.node[4].wlan[0].mac.dcf packetReceivedFromPeer:vector(packetBytes) ETV
attr interpolationmode none
attr title "packets received, vector(packetBytes)"
vector 116 Scenario.node[4].wlan[0].mac.dcf packetReceivedFromPeerMulticast:vector(packetBytes) ETV
attr interpolationmode none
attr source ieee80211Multicast(packetReceivedFromPeer)
attr title "packets received: multicast, vector(packetBytes)"
vector 117 Scenario.node[4].wlan[0].mac.dcf packetReceivedFromPeerWithoutRetry:vector(packetBytes) ETV
attr interpolationmode none
attr source ieee80211NotRetry(packetReceivedFromPeer)
attr title "packets received: without retry, vector(packetBytes)"
vector 118 Scenario.node[4].wlan[0].mac packetSentToUpper:vector(packetBytes) ETV
attr interpolationmode none
attr title "packets sent to upper layer, vector(packetBytes)"
vector 119 Scenario.node[4].udp packetReceived:vector(packetBytes) ETV
attr interpolationmode none
attr source packetReceived
attr title "packets received, vector(packetBytes)"
vector 120 Scenario.node[4].udp passedUpPk:vector(count) ETV
attr interpolationmode none
attr source packetSentToUpper
attr title "packets passed up, vector(count)"
vector 121 Scenario.node[4].app[0] packetReceived:vector(packetBytes) ETV
attr interpolationmode none
attr source packetReceived
attr title "packets received, vector(packetBytes)"
vector 122 Scenario.node[4].app[0] throughput:vector ETV
attr source throughput(packetReceived)
attr title "throughput, vector"
attr unit bps
vector 123 Scenario.node[4].cache requestsReceived:vector ETV
attr interpolationmode none
attr source receive
attr title "requests received, vector"
vector 124 Scenario.node[4].cache hitRate:vector ETV
attr interpolationmode none
attr source hitRate
attr title "hit rate, vector"
vector 125 Scenario.node[4].dataServer requestsReceived:vector ETV
attr interpolationmode none
attr source receive
attr title "requests received, vector"
vector 126 Scenario.node[3].cache requestsReceived:vector ETV
attr interpolationmode none
attr source receive
attr title "requests received, vector"
vector 127 Scenario.node[3].cache hitRate:vector ETV
attr interpolationmode none
attr source hitRate
attr title "hit rate, vector"
vector 128 Scenario.node[3].dataServer requestsReceived:vector ETV
attr interpolationmode none
attr source receive
attr title "requests received, vector"
vector 129 Scenario.node[3].app[0] packetReceived:vector(packetBytes) ETV
attr interpolationmode none
attr source packetReceived
attr title "packets received, vector(packetBytes)"
vector 130 Scenario.node[3].app[0] throughput:vector ETV
attr source throughput(packetReceived)
attr title "throughput, vector"
attr unit bps
vector 131 Scenario.node[3].app[0] packetSent:vector(packetBytes) ETV
attr interpolationmode none
attr source packetSent
attr title "packets sent, vector(packetBytes)"
vector 132 Scenario.node[3].udp packetSent:vector(packetBytes) ETV
attr interpolationmode none
attr source packetSent
attr title "packets sent, vector(packetBytes)"
vector 133 Scenario.node[3].lo[0].lo rcvdPkFromHl:vector(packetBytes) ETV
attr interpolationmode none
attr source packetReceivedFromUpper
attr title "packets received from higher layer, vector(packetBytes)"
vector 134 Scenario.node[3].lo[0].lo passedUpPk:vector(packetBytes) ETV
attr interpolationmode none
attr source packetSentToUpper
attr title "packets passed to higher layer, vector(packetBytes)"
vector 135 Scenario.node[3].wlan[0].mac packetReceivedFromUpper:vector(packetBytes) ETV
attr interpolationmode none
attr title "packets received from upper layer, vector(packetBytes)"
vector 136 Scenario.node[3].wlan[0].mac.dcf.channelAccess.pendingQueue packetPushed:vector(packetBytes) ETV
attr interpolationmode none
attr title "packet pushed, vector(packetBytes)"
vector 137 Scenario.node[3].wlan[0].mac.dcf.channelAccess.pendingQueue queueLength:vector ETV
attr interpolationmode sample-hold
attr source "count(packetPushed) - count(packetPopped) - count(packetRemoved) - count(packetDropped)"
attr title "queue length, vector"
vector 138 Scenario.node[3].wlan[0].mac.dcf.channelAccess.contention backoffPeriodGenerated:vector ETV
attr interpolationmode none
attr title "backoff periods, vector"
vector 139 Scenario.node[3].wlan[0].mac.dcf.channelAccess.contention backoffActive:vector ETV
attr interpolationmode sample-hold
attr source count(backoffStarted)-count(backoffStopped)
attr title "backoff active, vector"
vector 140 Scenario.node[3].udp packetReceived:vector(packetBytes) ETV
attr interpolationmode none
attr source packetReceived
attr title "packets received, vector(packetBytes)"
vector 141 Scenario.node[3].udp passedUpPk:vector(count) ETV
attr interpolationmode none
attr source packetSentToUpper
attr title "packets passed up, vector(count)"
vector 142 Scenario.node[3].wlan[0].mac.dcf.channelAccess.pendingQueue packetPopped:vector(packetBytes) ETV
attr interpolationmode none
attr title "packet popped, vector(packetBytes)"
vector 143 Scenario.node[3].wlan[0].mac.dcf.channelAccess.pendingQueue queueingTime:vector ETV
attr interpolationmode none
attr source queueingTime(packetPopped)
attr title "queueing times, vector"
attr unit s
vector 144 Scenario.node[3].wlan[0].mac.dcf.channelAccess.inProgressFrames queueLength:vector ETV
attr interpolationmode sample-hold
attr source "count(packetEnqueued) - count(packetDequeued)"
attr title "queue length, vector"
vector 145 Scenario.node[3].wlan[0].mac.dcf datarateSelected:vector ETV
attr interpolationmode none
attr title "datarates selected, vector"
vector 146 Scenario.node[3].wlan[0].mac packetSentToLower:vector(packetBytes) ETV
attr interpolationmode none
attr title "packets sent to lower layer, vector(packetBytes)"
vector 147 Scenario.node[3].wlan[0].mac.dcf frameSequenceActive:vector ETV
attr interpolationmode sample-hold
attr source count(frameSequenceStarted)-count(frameSequenceFinished)
attr title "frame sequence active, vector"
vector 148 Scenario.node[3].wlan[0].radio transmissionState:vector ETV
attr interpolationmode sample-hold
attr source transmissionStateChanged
attr title "Radio transmission state, vector"
vector 149 Scenario.node[3].wlan[0].mac.dcf packetSentToPeer:vector(packetBytes) ETV
attr interpolationmode none
attr title "packets sent, vector(packetBytes)"
vector 150 Scenario.node[3].wlan[0].mac.dcf packetSentToPeerMulticast:vector(packetBytes) ETV
attr interpolationmode none
attr source ieee80211Multicast(packetSentToPeer)
attr title "packets sent: multicast, vector(packetBytes)"
vector 151 Scenario.node[3].wlan[0].mac.dcf packetSentToPeerWithoutRetry:vector(packetBytes) ETV
attr interpolationmode none
attr source ieee80211NotRetry(packetSentToPeer)
attr title "packets sent: without retry, vector(packetBytes)"
vector 152 Scenario.node[3].wlan[0].mac.dcf.channelAccess.inProgressFrames queueingTime:vector ETV
attr interpolationmode none
attr source queueingTime(packetDequeued)
attr title "queueing times, vector"
vector 153 Scenario.node[3].wlan[0].mac packetReceivedFromLower:vector(packetBytes) ETV
attr interpolationmode none
attr title "packets received from lower layer, vector(packetBytes)"
vector 154 Scenario.node[3].wlan[0].mac.dcf packetReceivedFromPeer:vector(packetBytes) ETV
attr interpolationmode none
attr title "packets received, vector(packetBytes)"
vector 155 Scenario.node[3].wlan[0].mac.dcf packetReceivedFromPeerMulticast:vector(packetBytes) ETV
attr interpolationmode none
attr source ieee80211Multicast(packetReceivedFromPeer)
attr title "packets received: multicast, vector(packetBytes)"
vector 156 Scenario.node[3].wlan[0].mac.dcf packetReceivedFromPeerWithoutRetry:vector(packetBytes) ETV
attr interpolationmode none
attr source ieee80211NotRetry(packetReceivedFromPeer)
attr title "packets received: without retry, vector(packetBytes)"
vector 157 Scenario.node[3].wlan[0].mac packetSentToUpper:vector(packetBytes) ETV
attr interpolationmode none
attr title "packets sent to upper layer, vector(packetBytes)"
vector 158 Scenario.node[1].wlan[0].mac packetReceivedFromLower:vector(packetBytes) ETV
attr interpolationmode none
attr title "packets received from lower layer, vector(packetBytes)"
vector 159 Scenario.node[1].wlan[0].mac.dcf packetReceivedFromPeer:vector(packetBytes) ETV
attr interpolationmode none
attr title "packets received, vector(packetBytes)"
vector 160 Scenario.node[1].wlan[0].mac.dcf packetReceivedFromPeerMulticast:vector(packetBytes) ETV
attr interpolationmode none
attr source ieee80211Multicast(packetReceivedFromPeer)
attr title "packets received: multicast, vector(packetBytes)"
vector 161 Scenario.node[1].wlan[0].mac.dcf packetReceivedFromPeerWithoutRetry:vector(packetBytes) ETV
attr interpolationmode none
attr source ieee80211NotRetry(packetReceivedFromPeer)
attr title "packets received: without retry, vector(packetBytes)"
vector 162 Scenario.node[1].wlan[0].mac packetSentToUpper:vector(packetBytes) ETV
attr interpolationmode none
attr title "packets sent to upper layer, vector(packetBytes)"
vector 163 Scenario.node[4].app[0] RequestReceiveTime:vector ETV
attr interpolationmode none
attr source receiveTime
attr title "request time, vector"
vector 164 Scenario.node[3].app[0] RequestReceiveTime:vector ETV
attr interpolationmode none
attr source receiveTime
attr title "request time, vector"
vector 165 Scenario.node[4].app[0] packetSent:vector(packetBytes) ETV
attr interpolationmode none
attr source packetSent
attr title "packets sent, vector(packetBytes)"
vector 166 Scenario.node[4].udp packetSent:vector(packetBytes) ETV
attr interpolationmode none
attr source packetSent
attr title "packets sent, vector(packetBytes)"
vector 167 Scenario.node[4].lo[0].lo rcvdPkFromHl:vector(packetBytes) ETV
attr interpolationmode none
attr source packetReceivedFromUpper
attr title "packets received from higher layer, vector(packetBytes)"
vector 168 Scenario.node[4].lo[0].lo passedUpPk:vector(packetBytes) ETV
attr interpolationmode none
attr source packetSentToUpper
attr title "packets passed to higher layer, vector(packetBytes)"
vector 169 Scenario.node[4].wlan[0].mac packetReceivedFromUpper:vector(packetBytes) ETV
attr interpolationmode none
attr title "packets received from upper layer, vector(packetBytes)"
vector 170 Scenario.node[4].wlan[0].mac.dcf.channelAccess.pendingQueue packetPushed:vector(packetBytes) ETV
attr interpolationmode none
attr title "packet pushed, vector(packetBytes)"
vector 171 Scenario.node[4].wlan[0].mac.dcf.channelAccess.pendingQueue queueLength:vector ETV
attr interpolationmode sample-hold
attr source "count(packetPushed) - count(packetPopped) - count(packetRemoved) - count(packetDropped)"
attr title "queue length, vector"
vector 172 Scenario.node[4].wlan[0].mac.dcf.channelAccess.contention backoffPeriodGenerated:vector ETV
attr interpolationmode none
attr title "backoff periods, vector"
vector 173 Scenario.node[4].wlan[0].mac.dcf.channelAccess.contention backoffActive:vector ETV
attr interpolationmode sample-hold
attr source count(backoffStarted)-count(backoffStopped)
attr title "backoff active, vector"
vector 174 Scenario.node[4].wlan[0].mac.dcf.channelAccess.pendingQueue packetPopped:vector(packetBytes) ETV
attr interpolationmode none
attr title "packet popped, vector(packetBytes)"
vector 175 Scenario.node[4].wlan[0].mac.dcf.channelAccess.pendingQueue queueingTime:vector ETV
attr interpolationmode none
attr source queueingTime(packetPopped)
attr title "queueing times, vector"
attr unit s
vector 176 Scenario.node[4].wlan[0].mac.dcf.channelAccess.inProgressFrames queueLength:vector ETV
attr interpolationmode sample-hold
attr source "count(packetEnqueued) - count(packetDequeued)"
attr title "queue length, vector"
vector 177 Scenario.node[4].wlan[0].mac.dcf datarateSelected:vector ETV
attr interpolationmode none
attr title "datarates selected, vector"
vector 178 Scenario.node[4].wlan[0].mac packetSentToLower:vector(packetBytes) ETV
attr interpolationmode none
attr title "packets sent to lower layer, vector(packetBytes)"
vector 179 Scenario.node[4].wlan[0].mac.dcf frameSequenceActive:vector ETV
attr interpolationmode sample-hold
attr source count(frameSequenceStarted)-count(frameSequenceFinished)
attr title "frame sequence active, vector"
vector 180 Scenario.node[4].wlan[0].radio transmissionState:vector ETV
attr interpolationmode sample-hold
attr source transmissionStateChanged
attr title "Radio transmission state, vector"
vector 181 Scenario.node[4].wlan[0].mac.dcf packetSentToPeer:vector(packetBytes) ETV
attr interpolationmode none
attr title "packets sent, vector(packetBytes)"
vector 182 Scenario.node[4].wlan[0].mac.dcf packetSentToPeerMulticast:vector(packetBytes) ETV
attr interpolationmode none
attr source ieee80211Multicast(packetSentToPeer)
attr title "packets sent: multicast, vector(packetBytes)"
vector 183 Scenario.node[4].wlan[0].mac.dcf packetSentToPeerWithoutRetry:vector(packetBytes) ETV
attr interpolationmode none
attr source ieee80211NotRetry(packetSentToPeer)
attr title "packets sent: without retry, vector(packetBytes)"
vector 184 Scenario.node[4].wlan[0].mac.dcf.channelAccess.inProgressFrames queueingTime:vector ETV
attr interpolationmode none
attr source queueingTime(packetDequeued)
attr title "queueing times, vector"
vector 185 Scenario.node[5].wlan[0].radio radioMode:vector ETV
attr interpolationmode sample-hold
attr source radioModeChanged
attr title "Radio mode, vector"
vector 186 Scenario.node[5].wlan[0].radio radioChannel:vector ETV
attr interpolationmode sample-hold
attr source radioChannelChanged
attr title "Radio channel, vector"
vector 187 Scenario.node[5].wlan[0].radio receptionState:vector ETV
attr interpolationmode sample-hold
attr source receptionStateChanged
attr title "Radio reception state, vector"
vector 188 Scenario.node[5].wlan[0].mac.dcf.recoveryProcedure contentionWindowChanged:vector ETV
attr interpolationmode sample-hold
attr title "contention window, vector"
vector 189 Scenario.node[6].wlan[0].radio radioMode:vector ETV
attr interpolationmode sample-hold
attr source radioModeChanged
attr title "Radio mode, vector"
vector 190 Scenario.node[6].wlan[0].radio radioChannel:vector ETV
attr interpolationmode sample-hold
attr source radioChannelChanged
attr title "Radio channel, vector"
vector 191 Scenario.node[6].wlan[0].radio receptionState:vector ETV
attr interpolationmode sample-hold
attr source receptionStateChanged
attr title "Radio reception state, vector"
vector 192 Scenario.node[6].wlan[0].mac.dcf.recoveryProcedure contentionWindowChanged:vector ETV
attr interpolationmode sample-hold
attr title "contention window, vector"
vector 193 Scenario.node[5].cache requestsReceived:vector ETV
attr interpolationmode none
attr source receive
attr title "requests received, vector"
vector 194 Scenario.node[5].cache hitRate:vector ETV
attr interpolationmode none
attr source hitRate
attr title "hit rate, vector"
vector 195 Scenario.node[5].dataServer requestsReceived:vector ETV
attr interpolationmode none
attr source receive
attr title "requests received, vector"
vector 196 Scenario.node[5].app[0] packetReceived:vector(packetBytes) ETV
attr interpolationmode none
attr source packetReceived
attr title "packets received, vector(packetBytes)"
vector 197 Scenario.node[5].app[0] throughput:vector ETV
attr source throughput(packetReceived)
attr title "throughput, vector"
attr unit bps
vector 198 Scenario.node[5].app[0] packetSent:vector(packetBytes) ETV
attr interpolationmode none
attr source packetSent
attr title "packets sent, vector(packetBytes)"
vector 199 Scenario.node[5].udp packetSent:vector(packetBytes) ETV
attr interpolationmode none
attr source packetSent
attr title "packets sent, vector(packetBytes)"
vector 200 Scenario.node[5].lo[0].lo rcvdPkFromHl:vector(packetBytes) ETV
attr interpolationmode none
attr source packetReceivedFromUpper
attr title "packets received from higher layer, vector(packetBytes)"
vector 201 Scenario.node[5].lo[0].lo passedUpPk:vector(packetBytes) ETV
attr interpolationmode none
attr source packetSentToUpper
attr title "packets passed to higher layer, vector(packetBytes)"
vector 202 Scenario.node[5].wlan[0].mac packetReceivedFromUpper:vector(packetBytes) ETV
attr interpolationmode none
attr title "packets received from upper layer, vector(packetBytes)"
vector 203 Scenario.node[5].wlan[0].mac.dcf.channelAccess.pendingQueue packetPushed:vector(packetBytes) ETV
attr interpolationmode none
attr title "packet pushed, vector(packetBytes)"
vector 204 Scenario.node[5].wlan[0].mac.dcf.channelAccess.pendingQueue queueLength:vector ETV
attr interpolationmode sample-hold
attr source "count(packetPushed) - count(packetPopped) - count(packetRemoved) - count(packetDropped)"
attr title "queue length, vector"
vector 205 Scenario.node[5].wlan[0].mac.dcf.channelAccess.contention backoffPeriodGenerated:vector ETV
attr interpolationmode none
attr title "backoff periods, vector"
vector 206 Scenario.node[5].wlan[0].mac.dcf.channelAccess.contention backoffActive:vector ETV
attr interpolationmode sample-hold
attr source count(backoffStarted)-count(backoffStopped)
attr title "backoff active, vector"
vector 207 Scenario.node[5].udp packetReceived:vector(packetBytes) ETV
attr interpolationmode none
attr source packetReceived
attr title "packets received, vector(packetBytes)"
vector 208 Scenario.node[5].udp passedUpPk:vector(count) ETV
attr interpolationmode none
attr source packetSentToUpper
attr title "packets passed up, vector(count)"
vector 209 Scenario.node[5].wlan[0].mac.dcf.channelAccess.pendingQueue packetPopped:vector(packetBytes) ETV
attr interpolationmode none
attr title "packet popped, vector(packetBytes)"
vector 210 Scenario.node[5].wlan[0].mac.dcf.channelAccess.pendingQueue queueingTime:vector ETV
attr interpolationmode none
attr source queueingTime(packetPopped)
attr title "queueing times, vector"
attr unit s
vector 211 Scenario.node[5].wlan[0].mac.dcf.channelAccess.inProgressFrames queueLength:vector ETV
attr interpolationmode sample-hold
attr source "count(packetEnqueued) - count(packetDequeued)"
attr title "queue length, vector"
vector 212 Scenario.node[5].wlan[0].mac.dcf datarateSelected:vector ETV
attr interpolationmode none
attr title "datarates selected, vector"
vector 213 Scenario.node[5].wlan[0].mac packetSentToLower:vector(packetBytes) ETV
attr interpolationmode none
attr title "packets sent to lower layer, vector(packetBytes)"
vector 214 Scenario.node[5].wlan[0].mac.dcf frameSequenceActive:vector ETV
attr interpolationmode sample-hold
attr source count(frameSequenceStarted)-count(frameSequenceFinished)
attr title "frame sequence active, vector"
vector 215 Scenario.node[5].wlan[0].radio transmissionState:vector ETV
attr interpolationmode sample-hold
attr source transmissionStateChanged
attr title "Radio transmission state, vector"
vector 216 Scenario.node[5].wlan[0].mac.dcf packetSentToPeer:vector(packetBytes) ETV
attr interpolationmode none
attr title "packets sent, vector(packetBytes)"
vector 217 Scenario.node[5].wlan[0].mac.dcf packetSentToPeerMulticast:vector(packetBytes) ETV
attr interpolationmode none
attr source ieee80211Multicast(packetSentToPeer)
attr title "packets sent: multicast, vector(packetBytes)"
vector 218 Scenario.node[5].wlan[0].mac.dcf packetSentToPeerWithoutRetry:vector(packetBytes) ETV
attr interpolationmode none
attr source ieee80211NotRetry(packetSentToPeer)
attr title "packets sent: without retry, vector(packetBytes)"
vector 219 Scenario.node[5].wlan[0].mac.dcf.channelAccess.inProgressFrames queueingTime:vector ETV
attr interpolationmode none
attr source queueingTime(packetDequeued)
attr title "queueing times, vector"
22	176	15.179	540
22	389	30.152	540
22	700	40.107	540
22	1130	53.24342453349	540
23	176	15.179	540
23	389	30.152	540
23	700	40.107	540
23	1130	53.24342453349	540
158	748	40.191849933988	570
158	1114	53.18842453349	570
35	183	15.179	570
35	396	30.152	570
35	707	40.107	570
35	1137	53.24342453349	570
24	179	15.179	542
24	392	30.152	542
24	703	40.107	542
24	1133	53.24342453349	542
162	748	40.191849933988	542
162	1114	53.18842453349	542
161	748	40.191849933988	570
161	1114	53.18842453349	570
160	748	40.191849933988	570
160	1114	53.18842453349	570
159	748	40.191849933988	570
159	1114	53.18842453349	570
40	187	15.179424	570
40	401	30.152424	570
40	714	40.107424	570
40	1146	53.24384853349	570
39	187	15.179424	570
39	401	30.152424	570
39	714	40.107424	570
39	1146	53.24384853349	570
38	187	15.179424	570
38	401	30.152424	570
38	714	40.107424	570
38	1146	53.24384853349	570
36	183	15.179	1
36	187	15.179424	0
36	396	30.152	1
36	401	30.152424	0
36	707	40.107	1
36	714	40.107424	0
36	1137	53.24342453349	1
36	1146	53.24384853349	0
34	183	15.179	12000000
34	396	30.152	12000000
34	707	40.107	12000000
34	1137	53.24342453349	12000000
32	183	15.179	0
32	396	30.152	0
32	707	40.107	0
32	1137	53.24342453349	0
31	183	15.179	570
31	396	30.152	570
31	707	40.107	570
31	1137	53.24342453349	570
25	179	15.179	570
25	392	30.152	570
25	703	40.107	570
25	1133	53.24342453349	570
26	179	15.179	1
26	183	15.179	0
26	392	30.152	1
26	396	30.152	0
26	703	40.107	1
26	707	40.107	0
26	1133	53.24342453349	1
26	1137	53.24342453349	0
41	187	15.179424	0.000424
41	401	30.152424	0.000424
41	714	40.107424	0.000424
41	1146	53.24384853349	0.000424
33	183	15.179	1
33	187	15.179424	0
33	396	30.152	1
33	401	30.152424	0
33	707	40.107	1
33	714	40.107424	0
33	1137	53.24342453349	1
33	1146	53.24384853349	0
28	179	15.179	1
28	182	15.179	0
28	392	30.152	1
28	395	30.152	0
28	703	40.107	1
28	706	40.107	0
28	1133	53.24342453349	1
28	1136	53.24342453349	0
27	179	15.179	3
27	392	30.152	2
27	703	40.107	8
27	1133	53.24342453349	0
9	56	5.1	15
37	184	15.179	1
37	185	15.179	2
37	187	15.179424	1
37	188	15.179424	0
37	397	30.152	1
37	398	30.152	2
37	401	30.152424	1
37	402	30.152424	0
37	708	40.107	1
37	709	40.107	2
37	714	40.107424	1
37	715	40.107424	0
37	1138	53.24342453349	1
37	1139	53.24342453349	2
37	1146	53.24384853349	1
37	1147	53.24384853349	0
8	56	5.1	1
8	184	15.179	0
8	188	15.179424	1
8	397	30.152	0
8	402	30.152424	1
8	708	40.107	0
8	715	40.107424	1
8	741	40.191425933988	3
8	747	40.191849933988	1
8	1105	53.18800053349	3
8	1113	53.18842453349	1
8	1138	53.24342453349	0
8	1147	53.24384853349	1
6	56	5.1	0
6	56	5.1	0
6	56	5.1	2
6	184	15.179	3
6	188	15.179424	2
6	397	30.152	3
6	402	30.152424	2
6	708	40.107	3
6	715	40.107424	2
6	1138	53.24342453349	3
6	1147	53.24384853349	2
7	56	5.1	3
29	180	15.179	520
29	393	30.152	520
29	704	40.107	520
29	751	40.191849933988	520
29	1117	53.18842453349	520
29	1134	53.24342453349	520
21	174	15.179	520
21	387	30.152	520
21	698	40.107	520
21	1128	53.24342453349	520
30	180	15.179	1
30	393	30.152	2
30	704	40.107	3
30	751	40.191849933988	4
30	1117	53.18842453349	5
30	1134	53.24342453349	6
19	116	10.108	0.0080000000000009
19	249	20.189	0.089000000000002
19	327	25.186	0.086000000000002
19	516	35.118	0.018000000000001
19	752	40.191849933988	0.091849933987994
19	820	45.115	0.015000000000001
19	999	50.125	0.024999999999999
19	1247	55.15	0.049999999999997
18	116	0.1	0
18	116	0.2	0
18	116	0.3	0
18	116	0.4	0
18	116	0.5	0
18	116	0.6	0
18	116	0.7	0
18	116	0.8	0
18	116	0.9	0
18	116	1	0
18	116	1.1	0
18	116	1.2	0
18	116	1.3	0
18	116	1.4	0
18	116	1.5	0
18	116	1.6	0
18	116	1.7	0
18	116	1.8	0
18	116	1.9	0
18	116	2	0
18	116	2.1	0
18	116	2.2	0
18	116	2.3	0
18	116	2.4	0
18	116	2.5	0
18	116	2.6	0
18	116	2.7	0
18	116	2.8	0
18	116	2.9	0
18	116	3	0
18	116	3.1	0
18	116	3.2	0
18	116	3.3	0
18	116	3.4	0
18	116	3.5	0
18	116	3.6	0
18	116	3.7	0
18	116	3.8	0
18	116	3.9	0
18	116	4	0
18	116	4.1	0
18	116	4.2	0
18	116	4.3	0
18	116	4.4	0
18	116	4.5	0
18	116	4.6	0
18	116	4.7	0
18	116	4.8	0
18	116	4.9	0
18	116	5	0
18	116	5.1	0
18	116	5.2	0
18	116	5.3	0
18	116	5.4	0
18	116	5.5	0
18	116	5.6	0
18	116	5.7	0
18	116	5.8	0
18	116	5.9	0
18	116	6	0
18	116	6.1	0
18	116	6.2	0
18	116	6.3	0
18	116	6.4	0
18	116	6.5	0
18	116	6.6	0
18	116	6.7	0
18	116	6.8	0
18	116	6.9	0
18	116	7	0
18	116	7.1	0
18	116	7.2	0
18	116	7.3	0
18	116	7.4	0
18	116	7.5	0
18	116	7.6	0
18	116	7.7	0
18	116	7.8	0
18	116	7.9	0
18	116	8	0
18	116	8.1	0
18	116	8.2	0
18	116	8.3	0
18	116	8.4	0
18	116	8.5	0
18	116	8.6	0
18	116	8.7	0
18	116	8.8	0
18	116	8.9	0
18	116	9	0
18	116	9.1	0
18	116	9.2	0
18	116	9.3	0
18	116	9.4	0
18	116	9.5	0
18	116	9.6	0
18	116	9.7	0
18	116	9.8	0
18	116	9.9	0
18	116	10	0
18	116	10.1	0
18	173	10.2	40960
18	173	10.3	0
18	173	10.4	0
18	173	10.5	0
18	173	10.6	0
18	173	10.7	0
18	173	10.8	0
18	173	10.9	0
18	173	11	0
18	173	11.1	0
18	173	11.2	0
18	173	11.3	0
18	173	11.4	0
18	173	11.5	0
18	173	11.6	0
18	173	11.7	0
18	173	11.8	0
18	173	11.9	0
18	173	12	0
18	173	12.1	0
18	173	12.2	0
18	173	12.3	0
18	173	12.4	0
18	173	12.5	0
18	173	12.6	0
18	173	12.7	0
18	173	12.8	0
18	173	12.9	0
18	173	13	0
18	173	13.1	0
18	173	13.2	0
18	173	13.3	0
18	173	13.4	0
18	173	13.5	0
18	173	13.6	0
18	173	13.7	0
18	173	13.8	0
18	173	13.9	0
18	173	14	0
18	173	14.1	0
18	173	14.2	0
18	173	14.3	0
18	173	14.4	0
18	173	14.5	0
18	173	14.6	0
18	173	14.7	0
18	173	14.8	0
18	173	14.9	0
18	173	15	0
18	173	15.1	0
18	249	15.2	81920
18	249	15.3	0
18	249	15.4	0
18	249	15.5	0
18	249	15.6	0
18	249	15.7	0
18	249	15.8	0
18	249	15.9	0
18	249	16	0
18	249	16.1	0
18	249	16.2	0
18	249	16.3	0
18	249	16.4	0
18	249	16.5	0
18	249	16.6	0
18	249	16.7	0
18	249	16.8	0
18	249	16.9	0
18	249	17	0
18	249	17.1	0
18	249	17.2	0
18	249	17.3	0
18	249	17.4	0
18	249	17.5	0
18	249	17.6	0
18	249	17.7	0
18	249	17.8	0
18	249	17.9	0
18	249	18	0
18	249	18.1	0
18	249	18.2	0
18	249	18.3	0
18	249	18.4	0
18	249	18.5	0
18	249	18.6	0
18	249	18.7	0
18	249	18.8	0
18	249	18.9	0
18	249	19	0
18	249	19.1	0
18	249	19.2	0
18	249	19.3	0
18	249	19.4	0
18	249	19.5	0
18	249	19.6	0
18	249	19.7	0
18	249	19.8	0
18	249	19.9	0
18	249	20	0
18	249	20.1	0
18	327	20.2	40960
18	327	20.3	0
18	327	20.4	0
18	327	20.5	0
18	327	20.6	0
18	327	20.7	0
18	327	20.8	0
18	327	20.9	0
18	327	21	0
18	327	21.1	0
18	327	21.2	0
18	327	21.3	0
18	327	21.4	0
18	327	21.5	0
18	327	21.6	0
18	327	21.7	0
18	327	21.8	0
18	327	21.9	0
18	327	22	0
18	327	22.1	0
18	327	22.2	0
18	327	22.3	0
18	327	22.4	0
18	327	22.5	0
18	327	22.6	0
18	327	22.7	0
18	327	22.8	0
18	327	22.9	0
18	327	23	0
18	327	23.1	0
18	327	23.2	0
18	327	23.3	0
18	327	23.4	0
18	327	23.5	0
18	327	23.6	0
18	327	23.7	0
18	327	23.8	0
18	327	23.9	0
18	327	24	0
18	327	24.1	0
18	327	24.2	0
18	327	24.3	0
18	327	24.4	0
18	327	24.5	0
18	327	24.6	0
18	327	24.7	0
18	327	24.8	0
18	327	24.9	0
18	327	25	0
18	327	25.1	0
18	386	25.2	40960
18	386	25.3	0
18	386	25.4	0
18	386	25.5	0
18	386	25.6	0
18	386	25.7	0
18	386	25.8	0
18	386	25.9	0
18	386	26	0
18	386	26.1	0
18	386	26.2	0
18	386	26.3	0
18	386	26.4	0
18	386	26.5	0
18	386	26.6	0
18	386	26.7	0
18	386	26.8	0
18	386	26.9	0
18	386	27	0
18	386	27.1	0
18	386	27.2	0
18	386	27.3	0
18	386	27.4	0
18	386	27.5	0
18	386	27.6	0
18	386	27.7	0
18	386	27.8	0
18	386	27.9	0
18	386	28	0
18	386	28.1	0
18	386	28.2	0
18	386	28.3	0
18	386	28.4	0
18	386	28.5	0
18	386	28.6	0
18	386	28.7	0
18	386	28.8	0
18	386	28.9	0
18	386	29	0
18	386	29.1	0
18	386	29.2	0
18	386	29.3	0
18	386	29.4	0
18	386	29.5	0
18	386	29.6	0
18	386	29.7	0
18	386	29.8	0
18	386	29.9	0
18	386	30	0
18	386	30.1	0
18	516	30.2	81920
18	516	30.3	0
18	516	30.4	0
18	516	30.5	0
18	516	30.6	0
18	516	30.7	0
18	516	30.8	0
18	516	30.9	0
18	516	31	0
18	516	31.1	0
18	516	31.2	0
18	516	31.3	0
18	516	31.4	0
18	516	31.5	0
18	516	31.6	0
18	516	31.7	0
18	516	31.8	0
18	516	31.9	0
18	516	32	0
18	516	32.1	0
18	516	32.2	0
18	516	32.3	0
18	516	32.4	0
18	516	32.5	0
18	516	32.6	0
18	516	32.7	0
18	516	32.8	0
18	516	32.9	0
18	516	33	0
18	516	33.1	0
18	516	33.2	0
18	516	33.3	0
18	516	33.4	0
18	516	33.5	0
18	516	33.6	0
18	516	33.7	0
18	516	33.8	0
18	516	33.9	0
18	516	34	0
18	516	34.1	0
18	516	34.2	0
18	516	34.3	0
18	516	34.4	0
18	516	34.5	0
18	516	34.6	0
18	516	34.7	0
18	516	34.8	0
18	516	34.9	0
18	516	35	0
18	516	35.1	0
18	697	35.2	40960
18	697	35.3	0
18	697	35.4	0
18	697	35.5	0
18	697	35.6	0
18	697	35.7	0
18	697	35.8	0
18	697	35.9	0
18	697	36	0
18	697	36.1	0
18	697	36.2	0
18	697	36.3	0
18	697	36.4	0
18	697	36.5	0
18	697	36.6	0
18	697	36.7	0
18	697	36.8	0
18	697	36.9	0
18	697	37	0
18	697	37.1	0
18	697	37.2	0
18	697	37.3	0
18	697	37.4	0
18	697	37.5	0
18	697	37.6	0
18	697	37.7	0
18	697	37.8	0
18	697	37.9	0
18	697	38	0
18	697	38.1	0
18	697	38.2	0
18	697	38.3	0
18	697	38.4	0
18	697	38.5	0
18	697	38.6	0
18	697	38.7	0
18	697	38.8	0
18	697	38.9	0
18	697	39	0
18	697	39.1	0
18	697	39.2	0
18	697	39.3	0
18	697	39.4	0
18	697	39.5	0
18	697	39.6	0
18	697	39.7	0
18	697	39.8	0
18	697	39.9	0
18	697	40	0
18	697	40.1	0
18	820	40.2	122880
18	820	40.3	0
18	820	40.4	0
18	820	40.5	0
18	820	40.6	0
18	820	40.7	0
18	820	40.8	0
18	820	40.9	0
18	820	41	0
18	820	41.1	0
18	820	41.2	0
18	820	41.3	0
18	820	41.4	0
18	820	41.5	0
18	820	41.6	0
18	820	41.7	0
18	820	41.8	0
18	820	41.9	0
18	820	42	0
18	820	42.1	0
18	820	42.2	0
18	820	42.3	0
18	820	42.4	0
18	820	42.5	0
18	820	42.6	0
18	820	42.7	0
18	820	42.8	0
18	820	42.9	0
18	820	43	0
18	820	43.1	0
18	820	43.2	0
18	820	43.3	0
18	820	43.4	0
18	820	43.5	0
18	820	43.6	0
18	820	43.7	0
18	820	43.8	0
18	820	43.9	0
18	820	44	0
18	820	44.1	0
18	820	44.2	0
18	820	44.3	0
18	820	44.4	0
18	820	44.5	0
18	820	44.6	0
18	820	44.7	0
18	820	44.8	0
18	820	44.9	0
18	820	45	0
18	820	45.1	0
18	999	45.2	40960
18	999	45.3	0
18	999	45.4	0
18	999	45.5	0
18	999	45.6	0
18	999	45.7	0
18	999	45.8	0
18	999	45.9	0
18	999	46	0
18	999	46.1	0
18	999	46.2	0
18	999	46.3	0
18	999	46.4	0
18	999	46.5	0
18	999	46.6	0
18	999	46.7	0
18	999	46.8	0
18	999	46.9	0
18	999	47	0
18	999	47.1	0
18	999	47.2	0
18	999	47.3	0
18	999	47.4	0
18	999	47.5	0
18	999	47.6	0
18	999	47.7	0
18	999	47.8	0
18	999	47.9	0
18	999	48	0
18	999	48.1	0
18	999	48.2	0
18	999	48.3	0
18	999	48.4	0
18	999	48.5	0
18	999	48.6	0
18	999	48.7	0
18	999	48.8	0
18	999	48.9	0
18	999	49	0
18	999	49.1	0
18	999	49.2	0
18	999	49.3	0
18	999	49.4	0
18	999	49.5	0
18	999	49.6	0
18	999	49.7	0
18	999	49.8	0
18	999	49.9	0
18	999	50	0
18	999	50.1	0
18	1118	50.2	40960
18	1118	50.3	0
18	1118	50.4	0
18	1118	50.5	0
18	1118	50.6	0
18	1118	50.7	0
18	1118	50.8	0
18	1118	50.9	0
18	1118	51	0
18	1118	51.1	0
18	1118	51.2	0
18	1118	51.3	0
18	1118	51.4	0
18	1118	51.5	0
18	1118	51.6	0
18	1118	51.7	0
18	1118	51.8	0
18	1118	51.9	0
18	1118	52	0
18	1118	52.1	0
18	1118	52.2	0
18	1118	52.3	0
18	1118	52.4	0
18	1118	52.5	0
18	1118	52.6	0
18	1118	52.7	0
18	1118	52.8	0
18	1118	52.9	0
18	1118	53	0
18	1118	53.1	0
18	1127	53.2	40960
18	1247	53.3	81920
18	1247	53.4	0
18	1247	53.5	0
18	1247	53.6	0
18	1247	53.7	0
18	1247	53.8	0
18	1247	53.9	0
18	1247	54	0
18	1247	54.1	0
18	1247	54.2	0
18	1247	54.3	0
18	1247	54.4	0
18	1247	54.5	0
18	1247	54.6	0
18	1247	54.7	0
18	1247	54.8	0
18	1247	54.9	0
18	1247	55	0
18	1247	55.1	0
18	1258	55.2	40960
18	1258	55.3	0
18	1258	55.4	0
18	1258	55.5	0
18	1258	55.6	0
18	1258	55.7	0
18	1258	55.8	0
18	1258	55.9	0
18	1258	56	0
18	1258	56.1	0
17	116	10.108	512
17	173	15.179	512
17	181	15.179	512
17	249	20.189	512
17	327	25.186	512
17	386	30.152	512
17	394	30.152	512
17	516	35.118	512
17	697	40.107	512
17	705	40.107	512
17	752	40.191849933988	512
17	820	45.115	512
17	999	50.125	512
17	1118	53.18842453349	512
17	1127	53.24342453349	512
17	1135	53.24342453349	512
17	1247	55.15	512
20	173	15.179	512
20	386	30.152	512
20	697	40.107	512
20	1127	53.24342453349	512
15	112	10.1	0
15	168	15.1	0
15	244	20.1	0
15	303	25.1	0
15	381	30.1	0
15	512	35.1	0
15	693	40.1	0
15	816	45.1	0
15	995	50.1	0
15	1118	53.18842453349	0
15	1209	55.1	0
14	112	10.1	1
14	168	15.1	2
14	244	20.1	3
14	303	25.1	4
14	381	30.1	5
14	512	35.1	6
14	693	40.1	7
14	816	45.1	8
14	995	50.1	9
14	1118	53.18842453349	10
14	1209	55.1	11
16	115	10.1	1
16	171	15.1	2
16	247	20.1	3
16	306	25.1	4
16	384	30.1	5
16	515	35.1	6
16	696	40.1	7
16	819	45.1	8
16	998	50.1	9
16	1119	53.18842453349	10
16	1212	55.1	11
0	2	0.1	0
0	2	0.1	0
0	2	0.1	2
0	318	25.146	3
0	323	25.146424	2
0	465	32.190425002447	3
0	470	32.190849002447	2
0	528	35.172	3
0	534	35.172424	2
0	619	37.20542492995	3
0	626	37.20584892995	2
0	832	45.167	3
0	839	45.167424	2
0	942	47.214425050716	3
0	949	47.214849050716	2
0	1011	50.175	3
0	1019	50.175424	2
0	1224	55.104	3
0	1233	55.104424	2
1	2	0.1	3
2	2	0.1	1
2	318	25.146	0
2	323	25.146424	1
2	441	32.175001002447	3
2	445	32.175425002447	1
2	465	32.190425002447	0
2	470	32.190849002447	1
2	528	35.172	0
2	534	35.172424	1
2	585	37.18200092995	3
2	597	37.18242492995	1
2	619	37.20542492995	0
2	626	37.20584892995	1
2	832	45.167	0
2	839	45.167424	1
2	913	47.149001050716	3
2	919	47.149425050716	1
2	942	47.214425050716	0
2	949	47.214849050716	1
2	1011	50.175	0
2	1019	50.175424	1
2	1224	55.104	0
2	1233	55.104424	1
3	2	0.1	15
4	55	5.1	1
4	111	10.1	2
4	167	15.1	3
4	243	20.1	4
4	302	25.1	5
4	380	30.1	6
4	450	32.175425002447	7
4	511	35.1	8
4	602	37.18242492995	9
4	692	40.1	10
4	815	45.1	11
4	924	47.149425050716	12
4	994	50.1	13
4	1208	55.1	14
5	55	5.1	0
5	111	10.1	0
5	167	15.1	0
5	243	20.1	0
5	302	25.1	0
5	380	30.1	0
5	450	32.175425002447	0
5	511	35.1	0
5	602	37.18242492995	0
5	692	40.1	0
5	815	45.1	0
5	924	47.149425050716	0
5	994	50.1	0
5	1208	55.1	0
10	57	5.1	1
10	114	10.1	2
10	170	15.1	3
10	246	20.1	4
10	305	25.1	5
10	383	30.1	6
10	451	32.175425002447	7
10	514	35.1	8
10	603	37.18242492995	9
10	695	40.1	10
10	818	45.1	11
10	925	47.149425050716	12
10	997	50.1	13
10	1211	55.1	14
11	61	5.146	512
11	117	10.158	512
11	172	15.111	512
11	248	20.101	512
11	307	25.146	512
11	315	25.146	512
11	385	30.109	512
11	450	32.175425002447	512
11	454	32.190425002447	512
11	462	32.190425002447	512
11	517	35.172	512
11	525	35.172	512
11	602	37.18242492995	512
11	608	37.20542492995	512
11	616	37.20542492995	512
11	727	40.125	512
11	821	45.167	512
11	829	45.167	512
11	924	47.149425050716	512
11	931	47.214425050716	512
11	939	47.214425050716	512
11	1000	50.175	512
11	1008	50.175	512
11	1213	55.104	512
11	1221	55.104	512
12	61	0.1	0
12	61	0.2	0
12	61	0.3	0
12	61	0.4	0
12	61	0.5	0
12	61	0.6	0
12	61	0.7	0
12	61	0.8	0
12	61	0.9	0
12	61	1	0
12	61	1.1	0
12	61	1.2	0
12	61	1.3	0
12	61	1.4	0
12	61	1.5	0
12	61	1.6	0
12	61	1.7	0
12	61	1.8	0
12	61	1.9	0
12	61	2	0
12	61	2.1	0
12	61	2.2	0
12	61	2.3	0
12	61	2.4	0
12	61	2.5	0
12	61	2.6	0
12	61	2.7	0
12	61	2.8	0
12	61	2.9	0
12	61	3	0
12	61	3.1	0
12	61	3.2	0
12	61	3.3	0
12	61	3.4	0
12	61	3.5	0
12	61	3.6	0
12	61	3.7	0
12	61	3.8	0
12	61	3.9	0
12	61	4	0
12	61	4.1	0
12	61	4.2	0
12	61	4.3	0
12	61	4.4	0
12	61	4.5	0
12	61	4.6	0
12	61	4.7	0
12	61	4.8	0
12	61	4.9	0
12	61	5	0
12	61	5.1	0
12	117	5.2	40960
12	117	5.3	0
12	117	5.4	0
12	117	5.5	0
12	117	5.6	0
12	117	5.7	0
12	117	5.8	0
12	117	5.9	0
12	117	6	0
12	117	6.1	0
12	117	6.2	0
12	117	6.3	0
12	117	6.4	0
12	117	6.5	0
12	117	6.6	0
12	117	6.7	0
12	117	6.8	0
12	117	6.9	0
12	117	7	0
12	117	7.1	0
12	117	7.2	0
12	117	7.3	0
12	117	7.4	0
12	117	7.5	0
12	117	7.6	0
12	117	7.7	0
12	117	7.8	0
12	117	7.9	0
12	117	8	0
12	117	8.1	0
12	117	8.2	0
12	117	8.3	0
12	117	8.4	0
12	117	8.5	0
12	117	8.6	0
12	117	8.7	0
12	117	8.8	0
12	117	8.9	0
12	117	9	0
12	117	9.1	0
12	117	9.2	0
12	117	9.3	0
12	117	9.4	0
12	117	9.5	0
12	117	9.6	0
12	117	9.7	0
12	117	9.8	0
12	117	9.9	0
12	117	10	0
12	117	10.1	0
12	172	10.2	40960
12	172	10.3	0
12	172	10.4	0
12	172	10.5	0
12	172	10.6	0
12	172	10.7	0
12	172	10.8	0
12	172	10.9	0
12	172	11	0
12	172	11.1	0
12	172	11.2	0
12	172	11.3	0
12	172	11.4	0
12	172	11.5	0
12	172	11.6	0
12	172	11.7	0
12	172	11.8	0
12	172	11.9	0
12	172	12	0
12	172	12.1	0
12	172	12.2	0
12	172	12.3	0
12	172	12.4	0
12	172	12.5	0
12	172	12.6	0
12	172	12.7	0
12	172	12.8	0
12	172	12.9	0
12	172	13	0
12	172	13.1	0
12	172	13.2	0
12	172	13.3	0
12	172	13.4	0
12	172	13.5	0
12	172	13.6	0
12	172	13.7	0
12	172	13.8	0
12	172	13.9	0
12	172	14	0
12	172	14.1	0
12	172	14.2	0
12	172	14.3	0
12	172	14.4	0
12	172	14.5	0
12	172	14.6	0
12	172	14.7	0
12	172	14.8	0
12	172	14.9	0
12	172	15	0
12	172	15.1	0
12	248	15.2	40960
12	248	15.3	0
12	248	15.4	0
12	248	15.5	0
12	248	15.6	0
12	248	15.7	0
12	248	15.8	0
12	248	15.9	0
12	248	16	0
12	248	16.1	0
12	248	16.2	0
12	248	16.3	0
12	248	16.4	0
12	248	16.5	0
12	248	16.6	0
12	248	16.7	0
12	248	16.8	0
12	248	16.9	0
12	248	17	0
12	248	17.1	0
12	248	17.2	0
12	248	17.3	0
12	248	17.4	0
12	248	17.5	0
12	248	17.6	0
12	248	17.7	0
12	248	17.8	0
12	248	17.9	0
12	248	18	0
12	248	18.1	0
12	248	18.2	0
12	248	18.3	0
12	248	18.4	0
12	248	18.5	0
12	248	18.6	0
12	248	18.7	0
12	248	18.8	0
12	248	18.9	0
12	248	19	0
12	248	19.1	0
12	248	19.2	0
12	248	19.3	0
12	248	19.4	0
12	248	19.5	0
12	248	19.6	0
12	248	19.7	0
12	248	19.8	0
12	248	19.9	0
12	248	20	0
12	248	20.1	0
12	307	20.2	40960
12	307	20.3	0
12	307	20.4	0
12	307	20.5	0
12	307	20.6	0
12	307	20.7	0
12	307	20.8	0
12	307	20.9	0
12	307	21	0
12	307	21.1	0
12	307	21.2	0
12	307	21.3	0
12	307	21.4	0
12	307	21.5	0
12	307	21.6	0
12	307	21.7	0
12	307	21.8	0
12	307	21.9	0
12	307	22	0
12	307	22.1	0
12	307	22.2	0
12	307	22.3	0
12	307	22.4	0
12	307	22.5	0
12	307	22.6	0
12	307	22.7	0
12	307	22.8	0
12	307	22.9	0
12	307	23	0
12	307	23.1	0
12	307	23.2	0
12	307	23.3	0
12	307	23.4	0
12	307	23.5	0
12	307	23.6	0
12	307	23.7	0
12	307	23.8	0
12	307	23.9	0
12	307	24	0
12	307	24.1	0
12	307	24.2	0
12	307	24.3	0
12	307	24.4	0
12	307	24.5	0
12	307	24.6	0
12	307	24.7	0
12	307	24.8	0
12	307	24.9	0
12	307	25	0
12	307	25.1	0
12	385	25.2	81920
12	385	25.3	0
12	385	25.4	0
12	385	25.5	0
12	385	25.6	0
12	385	25.7	0
12	385	25.8	0
12	385	25.9	0
12	385	26	0
12	385	26.1	0
12	385	26.2	0
12	385	26.3	0
12	385	26.4	0
12	385	26.5	0
12	385	26.6	0
12	385	26.7	0
12	385	26.8	0
12	385	26.9	0
12	385	27	0
12	385	27.1	0
12	385	27.2	0
12	385	27.3	0
12	385	27.4	0
12	385	27.5	0
12	385	27.6	0
12	385	27.7	0
12	385	27.8	0
12	385	27.9	0
12	385	28	0
12	385	28.1	0
12	385	28.2	0
12	385	28.3	0
12	385	28.4	0
12	385	28.5	0
12	385	28.6	0
12	385	28.7	0
12	385	28.8	0
12	385	28.9	0
12	385	29	0
12	385	29.1	0
12	385	29.2	0
12	385	29.3	0
12	385	29.4	0
12	385	29.5	0
12	385	29.6	0
12	385	29.7	0
12	385	29.8	0
12	385	29.9	0
12	385	30	0
12	385	30.1	0
12	450	30.2	40960
12	450	30.3	0
12	450	30.4	0
12	450	30.5	0
12	450	30.6	0
12	450	30.7	0
12	450	30.8	0
12	450	30.9	0
12	450	31	0
12	450	31.1	0
12	450	31.2	0
12	450	31.3	0
12	450	31.4	0
12	450	31.5	0
12	450	31.6	0
12	450	31.7	0
12	450	31.8	0
12	450	31.9	0
12	450	32	0
12	450	32.1	0
12	517	32.2	122880
12	517	32.3	0
12	517	32.4	0
12	517	32.5	0
12	517	32.6	0
12	517	32.7	0
12	517	32.8	0
12	517	32.9	0
12	517	33	0
12	517	33.1	0
12	517	33.2	0
12	517	33.3	0
12	517	33.4	0
12	517	33.5	0
12	517	33.6	0
12	517	33.7	0
12	517	33.8	0
12	517	33.9	0
12	517	34	0
12	517	34.1	0
12	517	34.2	0
12	517	34.3	0
12	517	34.4	0
12	517	34.5	0
12	517	34.6	0
12	517	34.7	0
12	517	34.8	0
12	517	34.9	0
12	517	35	0
12	517	35.1	0
12	602	35.2	81920
12	602	35.3	0
12	602	35.4	0
12	602	35.5	0
12	602	35.6	0
12	602	35.7	0
12	602	35.8	0
12	602	35.9	0
12	602	36	0
12	602	36.1	0
12	602	36.2	0
12	602	36.3	0
12	602	36.4	0
12	602	36.5	0
12	602	36.6	0
12	602	36.7	0
12	602	36.8	0
12	602	36.9	0
12	602	37	0
12	602	37.1	0
12	608	37.2	40960
12	727	37.3	81920
12	727	37.4	0
12	727	37.5	0
12	727	37.6	0
12	727	37.7	0
12	727	37.8	0
12	727	37.9	0
12	727	38	0
12	727	38.1	0
12	727	38.2	0
12	727	38.3	0
12	727	38.4	0
12	727	38.5	0
12	727	38.6	0
12	727	38.7	0
12	727	38.8	0
12	727	38.9	0
12	727	39	0
12	727	39.1	0
12	727	39.2	0
12	727	39.3	0
12	727	39.4	0
12	727	39.5	0
12	727	39.6	0
12	727	39.7	0
12	727	39.8	0
12	727	39.9	0
12	727	40	0
12	727	40.1	0
12	821	40.2	40960
12	821	40.3	0
12	821	40.4	0
12	821	40.5	0
12	821	40.6	0
12	821	40.7	0
12	821	40.8	0
12	821	40.9	0
12	821	41	0
12	821	41.1	0
12	821	41.2	0
12	821	41.3	0
12	821	41.4	0
12	821	41.5	0
12	821	41.6	0
12	821	41.7	0
12	821	41.8	0
12	821	41.9	0
12	821	42	0
12	821	42.1	0
12	821	42.2	0
12	821	42.3	0
12	821	42.4	0
12	821	42.5	0
12	821	42.6	0
12	821	42.7	0
12	821	42.8	0
12	821	42.9	0
12	821	43	0
12	821	43.1	0
12	821	43.2	0
12	821	43.3	0
12	821	43.4	0
12	821	43.5	0
12	821	43.6	0
12	821	43.7	0
12	821	43.8	0
12	821	43.9	0
12	821	44	0
12	821	44.1	0
12	821	44.2	0
12	821	44.3	0
12	821	44.4	0
12	821	44.5	0
12	821	44.6	0
12	821	44.7	0
12	821	44.8	0
12	821	44.9	0
12	821	45	0
12	821	45.1	0
12	924	45.2	81920
12	924	45.3	0
12	924	45.4	0
12	924	45.5	0
12	924	45.6	0
12	924	45.7	0
12	924	45.8	0
12	924	45.9	0
12	924	46	0
12	924	46.1	0
12	924	46.2	0
12	924	46.3	0
12	924	46.4	0
12	924	46.5	0
12	924	46.6	0
12	924	46.7	0
12	924	46.8	0
12	924	46.9	0
12	924	47	0
12	924	47.1	0
12	931	47.2	40960
12	1000	47.3	81920
12	1000	47.4	0
12	1000	47.5	0
12	1000	47.6	0
12	1000	47.7	0
12	1000	47.8	0
12	1000	47.9	0
12	1000	48	0
12	1000	48.1	0
12	1000	48.2	0
12	1000	48.3	0
12	1000	48.4	0
12	1000	48.5	0
12	1000	48.6	0
12	1000	48.7	0
12	1000	48.8	0
12	1000	48.9	0
12	1000	49	0
12	1000	49.1	0
12	1000	49.2	0
12	1000	49.3	0
12	1000	49.4	0
12	1000	49.5	0
12	1000	49.6	0
12	1000	49.7	0
12	1000	49.8	0
12	1000	49.9	0
12	1000	50	0
12	1000	50.1	0
12	1213	50.2	81920
12	1213	50.3	0
12	1213	50.4	0
12	1213	50.5	0
12	1213	50.6	0
12	1213	50.7	0
12	1213	50.8	0
12	1213	50.9	0
12	1213	51	0
12	1213	51.1	0
12	1213	51.2	0
12	1213	51.3	0
12	1213	51.4	0
12	1213	51.5	0
12	1213	51.6	0
12	1213	51.7	0
12	1213	51.8	0
12	1213	51.9	0
12	1213	52	0
12	1213	52.1	0
12	1213	52.2	0
12	1213	52.3	0
12	1213	52.4	0
12	1213	52.5	0
12	1213	52.6	0
12	1213	52.7	0
12	1213	52.8	0
12	1213	52.9	0
12	1213	53	0
12	1213	53.1	0
12	1213	53.2	0
12	1213	53.3	0
12	1213	53.4	0
12	1213	53.5	0
12	1213	53.6	0
12	1213	53.7	0
12	1213	53.8	0
12	1213	53.9	0
12	1213	54	0
12	1213	54.1	0
12	1213	54.2	0
12	1213	54.3	0
12	1213	54.4	0
12	1213	54.5	0
12	1213	54.6	0
12	1213	54.7	0
12	1213	54.8	0
12	1213	54.9	0
12	1213	55	0
12	1213	55.1	0
13	61	5.146	0.046
13	117	10.158	0.058
13	172	15.111	0.010999999999999
13	248	20.101	0.0010000000000012
13	385	30.109	0.0090000000000003
13	727	40.125	0.024999999999999
42	210	17.1	0
42	210	17.1	0
42	210	17.1	2
42	439	32.175	3
42	444	32.175424	2
42	582	37.182	3
42	589	37.182424	2
42	911	47.149	3
42	918	47.149424	2
42	1062	52.147	3
42	1070	52.147424	2
42	1285	57.188	3
43	210	17.1	3
44	210	17.1	1
44	439	32.175	0
44	444	32.175424	1
44	467	32.190426004894	3
44	471	32.190850004894	1
44	530	35.172000940779	3
44	535	35.172424940779	1
44	582	37.182	0
44	589	37.182424	1
44	621	37.2054258599	3
44	627	37.2058498599	1
44	834	45.167000964787	3
44	840	45.167424964787	1
44	911	47.149	0
44	918	47.149424	1
44	944	47.214426101432	3
44	950	47.214850101432	1
44	1062	52.147	0
44	1070	52.147424	1
44	1285	57.188	0
45	210	17.1	15
46	269	22.1	1
46	347	27.1	2
46	425	32.1	3
46	540	35.172424940779	4
46	565	37.1	5
46	776	42.1	6
46	845	45.167424964787	7
46	871	47.1	8
46	1045	52.1	9
46	1268	57.1	10
47	269	22.1	0
47	347	27.1	0
47	425	32.1	0
47	540	35.172424940779	0
47	565	37.1	0
47	776	42.1	0
47	845	45.167424964787	0
47	871	47.1	0
47	1045	52.1	0
47	1268	57.1	0
48	271	22.1	1
48	349	27.1	2
48	427	32.1	3
48	541	35.172424940779	4
48	567	37.1	5
48	779	42.1	6
48	846	45.167424964787	7
48	874	47.1	8
48	1048	52.1	9
48	1271	57.1	10
49	272	22.171	512
49	350	27.196	512
49	428	32.175	512
49	436	32.175	512
49	476	32.190850004894	512
49	540	35.172424940779	512
49	545	35.192424940779	512
49	571	37.182	512
49	579	37.182	512
49	632	37.2058498599	512
49	781	42.165	512
49	845	45.167424964787	512
49	851	45.178424964787	512
49	900	47.149	512
49	908	47.149	512
49	955	47.214850101432	512
49	1051	52.147	512
49	1059	52.147	512
49	1274	57.188	512
49	1282	57.188	512
50	272	0.1	0
50	272	0.2	0
50	272	0.3	0
50	272	0.4	0
50	272	0.5	0
50	272	0.6	0
50	272	0.7	0
50	272	0.8	0
50	272	0.9	0
50	272	1	0
50	272	1.1	0
50	272	1.2	0
50	272	1.3	0
50	272	1.4	0
50	272	1.5	0
50	272	1.6	0
50	272	1.7	0
50	272	1.8	0
50	272	1.9	0
50	272	2	0
50	272	2.1	0
50	272	2.2	0
50	272	2.3	0
50	272	2.4	0
50	272	2.5	0
50	272	2.6	0
50	272	2.7	0
50	272	2.8	0
50	272	2.9	0
50	272	3	0
50	272	3.1	0
50	272	3.2	0
50	272	3.3	0
50	272	3.4	0
50	272	3.5	0
50	272	3.6	0
50	272	3.7	0
50	272	3.8	0
50	272	3.9	0
50	272	4	0
50	272	4.1	0
50	272	4.2	0
50	272	4.3	0
50	272	4.4	0
50	272	4.5	0
50	272	4.6	0
50	272	4.7	0
50	272	4.8	0
50	272	4.9	0
50	272	5	0
50	272	5.1	0
50	272	5.2	0
50	272	5.3	0
50	272	5.4	0
50	272	5.5	0
50	272	5.6	0
50	272	5.7	0
50	272	5.8	0
50	272	5.9	0
50	272	6	0
50	272	6.1	0
50	272	6.2	0
50	272	6.3	0
50	272	6.4	0
50	272	6.5	0
50	272	6.6	0
50	272	6.7	0
50	272	6.8	0
50	272	6.9	0
50	272	7	0
50	272	7.1	0
50	272	7.2	0
50	272	7.3	0
50	272	7.4	0
50	272	7.5	0
50	272	7.6	0
50	272	7.7	0
50	272	7.8	0
50	272	7.9	0
50	272	8	0
50	272	8.1	0
50	272	8.2	0
50	272	8.3	0
50	272	8.4	0
50	272	8.5	0
50	272	8.6	0
50	272	8.7	0
50	272	8.8	0
50	272	8.9	0
50	272	9	0
50	272	9.1	0
50	272	9.2	0
50	272	9.3	0
50	272	9.4	0
50	272	9.5	0
50	272	9.6	0
50	272	9.7	0
50	272	9.8	0
50	272	9.9	0
50	272	10	0
50	272	10.1	0
50	272	10.2	0
50	272	10.3	0
50	272	10.4	0
50	272	10.5	0
50	272	10.6	0
50	272	10.7	0
50	272	10.8	0
50	272	10.9	0
50	272	11	0
50	272	11.1	0
50	272	11.2	0
50	272	11.3	0
50	272	11.4	0
50	272	11.5	0
50	272	11.6	0
50	272	11.7	0
50	272	11.8	0
50	272	11.9	0
50	272	12	0
50	272	12.1	0
50	272	12.2	0
50	272	12.3	0
50	272	12.4	0
50	272	12.5	0
50	272	12.6	0
50	272	12.7	0
50	272	12.8	0
50	272	12.9	0
50	272	13	0
50	272	13.1	0
50	272	13.2	0
50	272	13.3	0
50	272	13.4	0
50	272	13.5	0
50	272	13.6	0
50	272	13.7	0
50	272	13.8	0
50	272	13.9	0
50	272	14	0
50	272	14.1	0
50	272	14.2	0
50	272	14.3	0
50	272	14.4	0
50	272	14.5	0
50	272	14.6	0
50	272	14.7	0
50	272	14.8	0
50	272	14.9	0
50	272	15	0
50	272	15.1	0
50	272	15.2	0
50	272	15.3	0
50	272	15.4	0
50	272	15.5	0
50	272	15.6	0
50	272	15.7	0
50	272	15.8	0
50	272	15.9	0
50	272	16	0
50	272	16.1	0
50	272	16.2	0
50	272	16.3	0
50	272	16.4	0
50	272	16.5	0
50	272	16.6	0
50	272	16.7	0
50	272	16.8	0
50	272	16.9	0
50	272	17	0
50	272	17.1	0
50	272	17.2	0
50	272	17.3	0
50	272	17.4	0
50	272	17.5	0
50	272	17.6	0
50	272	17.7	0
50	272	17.8	0
50	272	17.9	0
50	272	18	0
50	272	18.1	0
50	272	18.2	0
50	272	18.3	0
50	272	18.4	0
50	272	18.5	0
50	272	18.6	0
50	272	18.7	0
50	272	18.8	0
50	272	18.9	0
50	272	19	0
50	272	19.1	0
50	272	19.2	0
50	272	19.3	0
50	272	19.4	0
50	272	19.5	0
50	272	19.6	0
50	272	19.7	0
50	272	19.8	0
50	272	19.9	0
50	272	20	0
50	272	20.1	0
50	272	20.2	0
50	272	20.3	0
50	272	20.4	0
50	272	20.5	0
50	272	20.6	0
50	272	20.7	0
50	272	20.8	0
50	272	20.9	0
50	272	21	0
50	272	21.1	0
50	272	21.2	0
50	272	21.3	0
50	272	21.4	0
50	272	21.5	0
50	272	21.6	0
50	272	21.7	0
50	272	21.8	0
50	272	21.9	0
50	272	22	0
50	272	22.1	0
50	350	22.2	40960
50	350	22.3	0
50	350	22.4	0
50	350	22.5	0
50	350	22.6	0
50	350	22.7	0
50	350	22.8	0
50	350	22.9	0
50	350	23	0
50	350	23.1	0
50	350	23.2	0
50	350	23.3	0
50	350	23.4	0
50	350	23.5	0
50	350	23.6	0
50	350	23.7	0
50	350	23.8	0
50	350	23.9	0
50	350	24	0
50	350	24.1	0
50	350	24.2	0
50	350	24.3	0
50	350	24.4	0
50	350	24.5	0
50	350	24.6	0
50	350	24.7	0
50	350	24.8	0
50	350	24.9	0
50	350	25	0
50	350	25.1	0
50	350	25.2	0
50	350	25.3	0
50	350	25.4	0
50	350	25.5	0
50	350	25.6	0
50	350	25.7	0
50	350	25.8	0
50	350	25.9	0
50	350	26	0
50	350	26.1	0
50	350	26.2	0
50	350	26.3	0
50	350	26.4	0
50	350	26.5	0
50	350	26.6	0
50	350	26.7	0
50	350	26.8	0
50	350	26.9	0
50	350	27	0
50	350	27.1	0
50	428	27.2	40960
50	428	27.3	0
50	428	27.4	0
50	428	27.5	0
50	428	27.6	0
50	428	27.7	0
50	428	27.8	0
50	428	27.9	0
50	428	28	0
50	428	28.1	0
50	428	28.2	0
50	428	28.3	0
50	428	28.4	0
50	428	28.5	0
50	428	28.6	0
50	428	28.7	0
50	428	28.8	0
50	428	28.9	0
50	428	29	0
50	428	29.1	0
50	428	29.2	0
50	428	29.3	0
50	428	29.4	0
50	428	29.5	0
50	428	29.6	0
50	428	29.7	0
50	428	29.8	0
50	428	29.9	0
50	428	30	0
50	428	30.1	0
50	428	30.2	0
50	428	30.3	0
50	428	30.4	0
50	428	30.5	0
50	428	30.6	0
50	428	30.7	0
50	428	30.8	0
50	428	30.9	0
50	428	31	0
50	428	31.1	0
50	428	31.2	0
50	428	31.3	0
50	428	31.4	0
50	428	31.5	0
50	428	31.6	0
50	428	31.7	0
50	428	31.8	0
50	428	31.9	0
50	428	32	0
50	428	32.1	0
50	540	32.2	122880
50	540	32.3	0
50	540	32.4	0
50	540	32.5	0
50	540	32.6	0
50	540	32.7	0
50	540	32.8	0
50	540	32.9	0
50	540	33	0
50	540	33.1	0
50	540	33.2	0
50	540	33.3	0
50	540	33.4	0
50	540	33.5	0
50	540	33.6	0
50	540	33.7	0
50	540	33.8	0
50	540	33.9	0
50	540	34	0
50	540	34.1	0
50	540	34.2	0
50	540	34.3	0
50	540	34.4	0
50	540	34.5	0
50	540	34.6	0
50	540	34.7	0
50	540	34.8	0
50	540	34.9	0
50	540	35	0
50	540	35.1	0
50	571	35.2	81920
50	571	35.3	0
50	571	35.4	0
50	571	35.5	0
50	571	35.6	0
50	571	35.7	0
50	571	35.8	0
50	571	35.9	0
50	571	36	0
50	571	36.1	0
50	571	36.2	0
50	571	36.3	0
50	571	36.4	0
50	571	36.5	0
50	571	36.6	0
50	571	36.7	0
50	571	36.8	0
50	571	36.9	0
50	571	37	0
50	571	37.1	0
50	632	37.2	81920
50	781	37.3	40960
50	781	37.4	0
50	781	37.5	0
50	781	37.6	0
50	781	37.7	0
50	781	37.8	0
50	781	37.9	0
50	781	38	0
50	781	38.1	0
50	781	38.2	0
50	781	38.3	0
50	781	38.4	0
50	781	38.5	0
50	781	38.6	0
50	781	38.7	0
50	781	38.8	0
50	781	38.9	0
50	781	39	0
50	781	39.1	0
50	781	39.2	0
50	781	39.3	0
50	781	39.4	0
50	781	39.5	0
50	781	39.6	0
50	781	39.7	0
50	781	39.8	0
50	781	39.9	0
50	781	40	0
50	781	40.1	0
50	781	40.2	0
50	781	40.3	0
50	781	40.4	0
50	781	40.5	0
50	781	40.6	0
50	781	40.7	0
50	781	40.8	0
50	781	40.9	0
50	781	41	0
50	781	41.1	0
50	781	41.2	0
50	781	41.3	0
50	781	41.4	0
50	781	41.5	0
50	781	41.6	0
50	781	41.7	0
50	781	41.8	0
50	781	41.9	0
50	781	42	0
50	781	42.1	0
50	845	42.2	40960
50	845	42.3	0
50	845	42.4	0
50	845	42.5	0
50	845	42.6	0
50	845	42.7	0
50	845	42.8	0
50	845	42.9	0
50	845	43	0
50	845	43.1	0
50	845	43.2	0
50	845	43.3	0
50	845	43.4	0
50	845	43.5	0
50	845	43.6	0
50	845	43.7	0
50	845	43.8	0
50	845	43.9	0
50	845	44	0
50	845	44.1	0
50	845	44.2	0
50	845	44.3	0
50	845	44.4	0
50	845	44.5	0
50	845	44.6	0
50	845	44.7	0
50	845	44.8	0
50	845	44.9	0
50	845	45	0
50	845	45.1	0
50	900	45.2	81920
50	900	45.3	0
50	900	45.4	0
50	900	45.5	0
50	900	45.6	0
50	900	45.7	0
50	900	45.8	0
50	900	45.9	0
50	900	46	0
50	900	46.1	0
50	900	46.2	0
50	900	46.3	0
50	900	46.4	0
50	900	46.5	0
50	900	46.6	0
50	900	46.7	0
50	900	46.8	0
50	900	46.9	0
50	900	47	0
50	900	47.1	0
50	955	47.2	81920
50	1051	47.3	40960
50	1051	47.4	0
50	1051	47.5	0
50	1051	47.6	0
50	1051	47.7	0
50	1051	47.8	0
50	1051	47.9	0
50	1051	48	0
50	1051	48.1	0
50	1051	48.2	0
50	1051	48.3	0
50	1051	48.4	0
50	1051	48.5	0
50	1051	48.6	0
50	1051	48.7	0
50	1051	48.8	0
50	1051	48.9	0
50	1051	49	0
50	1051	49.1	0
50	1051	49.2	0
50	1051	49.3	0
50	1051	49.4	0
50	1051	49.5	0
50	1051	49.6	0
50	1051	49.7	0
50	1051	49.8	0
50	1051	49.9	0
50	1051	50	0
50	1051	50.1	0
50	1051	50.2	0
50	1051	50.3	0
50	1051	50.4	0
50	1051	50.5	0
50	1051	50.6	0
50	1051	50.7	0
50	1051	50.8	0
50	1051	50.9	0
50	1051	51	0
50	1051	51.1	0
50	1051	51.2	0
50	1051	51.3	0
50	1051	51.4	0
50	1051	51.5	0
50	1051	51.6	0
50	1051	51.7	0
50	1051	51.8	0
50	1051	51.9	0
50	1051	52	0
50	1051	52.1	0
50	1274	52.2	81920
50	1274	52.3	0
50	1274	52.4	0
50	1274	52.5	0
50	1274	52.6	0
50	1274	52.7	0
50	1274	52.8	0
50	1274	52.9	0
50	1274	53	0
50	1274	53.1	0
50	1274	53.2	0
50	1274	53.3	0
50	1274	53.4	0
50	1274	53.5	0
50	1274	53.6	0
50	1274	53.7	0
50	1274	53.8	0
50	1274	53.9	0
50	1274	54	0
50	1274	54.1	0
50	1274	54.2	0
50	1274	54.3	0
50	1274	54.4	0
50	1274	54.5	0
50	1274	54.6	0
50	1274	54.7	0
50	1274	54.8	0
50	1274	54.9	0
50	1274	55	0
50	1274	55.1	0
50	1274	55.2	0
50	1274	55.3	0
50	1274	55.4	0
50	1274	55.5	0
50	1274	55.6	0
50	1274	55.7	0
50	1274	55.8	0
50	1274	55.9	0
50	1274	56	0
50	1274	56.1	0
50	1274	56.2	0
50	1274	56.3	0
50	1274	56.4	0
50	1274	56.5	0
50	1274	56.6	0
50	1274	56.7	0
50	1274	56.8	0
50	1274	56.9	0
50	1274	57	0
50	1274	57.1	0
51	272	22.171	0.071000000000002
51	350	27.196	0.096
51	476	32.190850004894	0.090850004894001
51	632	37.2058498599	0.1058498599
51	781	42.165	0.064999999999998
51	955	47.214850101432	0.114850101432
52	307	25.146	512
52	454	32.190425002447	512
52	517	35.172	512
52	608	37.20542492995	512
52	821	45.167	512
52	931	47.214425050716	512
52	1000	50.175	512
52	1213	55.104	512
53	308	25.146	520
53	455	32.190425002447	520
53	518	35.172	520
53	609	37.20542492995	520
53	822	45.167	520
53	932	47.214425050716	520
53	1001	50.175	520
53	1214	55.104	520
54	310	25.146	540
54	457	32.190425002447	540
54	520	35.172	540
54	611	37.20542492995	540
54	824	45.167	540
54	934	47.214425050716	540
54	1003	50.175	540
54	1216	55.104	540
55	310	25.146	540
55	457	32.190425002447	540
55	520	35.172	540
55	611	37.20542492995	540
55	824	45.167	540
55	934	47.214425050716	540
55	1003	50.175	540
55	1216	55.104	540
56	313	25.146	542
56	460	32.190425002447	542
56	523	35.172	542
56	614	37.20542492995	542
56	827	45.167	542
56	937	47.214425050716	542
56	1006	50.175	542
56	1219	55.104	542
57	313	25.146	570
57	460	32.190425002447	570
57	523	35.172	570
57	614	37.20542492995	570
57	827	45.167	570
57	937	47.214425050716	570
57	1006	50.175	570
57	1219	55.104	570
58	313	25.146	1
58	317	25.146	0
58	460	32.190425002447	1
58	464	32.190425002447	0
58	523	35.172	1
58	527	35.172	0
58	614	37.20542492995	1
58	618	37.20542492995	0
58	827	45.167	1
58	831	45.167	0
58	937	47.214425050716	1
58	941	47.214425050716	0
58	1006	50.175	1
58	1010	50.175	0
58	1219	55.104	1
58	1223	55.104	0
59	313	25.146	5
59	460	32.190425002447	7
59	523	35.172	12
59	614	37.20542492995	7
59	827	45.167	5
59	937	47.214425050716	8
59	1006	50.175	0
59	1219	55.104	3
60	313	25.146	1
60	316	25.146	0
60	460	32.190425002447	1
60	463	32.190425002447	0
60	523	35.172	1
60	526	35.172	0
60	614	37.20542492995	1
60	617	37.20542492995	0
60	827	45.167	1
60	830	45.167	0
60	937	47.214425050716	1
60	940	47.214425050716	0
60	1006	50.175	1
60	1009	50.175	0
60	1219	55.104	1
60	1222	55.104	0
61	314	25.146	520
61	449	32.175425002447	520
61	461	32.190425002447	520
61	524	35.172	520
61	601	37.18242492995	520
61	615	37.20542492995	520
61	828	45.167	520
61	923	47.149425050716	520
61	938	47.214425050716	520
61	1007	50.175	520
61	1220	55.104	520
62	314	25.146	1
62	449	32.175425002447	2
62	461	32.190425002447	3
62	524	35.172	4
62	601	37.18242492995	5
62	615	37.20542492995	6
62	828	45.167	7
62	923	47.149425050716	8
62	938	47.214425050716	9
62	1007	50.175	10
62	1220	55.104	11
63	317	25.146	570
63	464	32.190425002447	570
63	527	35.172	570
63	618	37.20542492995	570
63	831	45.167	570
63	941	47.214425050716	570
63	1010	50.175	570
63	1223	55.104	570
64	317	25.146	0
64	464	32.190425002447	0
64	527	35.172	0
64	618	37.20542492995	0
64	831	45.167	0
64	941	47.214425050716	0
64	1010	50.175	0
64	1223	55.104	0
65	317	25.146	1
65	322	25.146424	0
65	464	32.190425002447	1
65	469	32.190849002447	0
65	527	35.172	1
65	533	35.172424	0
65	618	37.20542492995	1
65	625	37.20584892995	0
65	831	45.167	1
65	838	45.167424	0
65	941	47.214425050716	1
65	948	47.214849050716	0
65	1010	50.175	1
65	1018	50.175424	0
65	1223	55.104	1
65	1232	55.104424	0
66	317	25.146	12000000
66	464	32.190425002447	12000000
66	527	35.172	12000000
66	618	37.20542492995	12000000
66	831	45.167	12000000
66	941	47.214425050716	12000000
66	1010	50.175	12000000
66	1223	55.104	12000000
67	317	25.146	570
67	464	32.190425002447	570
67	527	35.172	570
67	618	37.20542492995	570
67	831	45.167	570
67	941	47.214425050716	570
67	1010	50.175	570
67	1223	55.104	570
68	317	25.146	1
68	322	25.146424	0
68	464	32.190425002447	1
68	469	32.190849002447	0
68	527	35.172	1
68	533	35.172424	0
68	618	37.20542492995	1
68	625	37.20584892995	0
68	831	45.167	1
68	838	45.167424	0
68	941	47.214425050716	1
68	948	47.214849050716	0
68	1010	50.175	1
68	1018	50.175424	0
68	1223	55.104	1
68	1232	55.104424	0
69	318	25.146	1
69	319	25.146	2
69	322	25.146424	1
69	323	25.146424	0
69	465	32.190425002447	1
69	466	32.190425002447	2
69	469	32.190849002447	1
69	470	32.190849002447	0
69	528	35.172	1
69	529	35.172	2
69	533	35.172424	1
69	534	35.172424	0
69	619	37.20542492995	1
69	620	37.20542492995	2
69	625	37.20584892995	1
69	626	37.20584892995	0
69	832	45.167	1
69	833	45.167	2
69	838	45.167424	1
69	839	45.167424	0
69	942	47.214425050716	1
69	943	47.214425050716	2
69	948	47.214849050716	1
69	949	47.214849050716	0
69	1011	50.175	1
69	1012	50.175	2
69	1018	50.175424	1
69	1019	50.175424	0
69	1224	55.104	1
69	1225	55.104	2
69	1232	55.104424	1
69	1233	55.104424	0
70	322	25.146424	570
70	469	32.190849002447	570
70	533	35.172424	570
70	625	37.20584892995	570
70	838	45.167424	570
70	948	47.214849050716	570
70	1018	50.175424	570
70	1232	55.104424	570
71	322	25.146424	570
71	469	32.190849002447	570
71	533	35.172424	570
71	625	37.20584892995	570
71	838	45.167424	570
71	948	47.214849050716	570
71	1018	50.175424	570
71	1232	55.104424	570
72	322	25.146424	570
72	469	32.190849002447	570
72	533	35.172424	570
72	625	37.20584892995	570
72	838	45.167424	570
72	948	47.214849050716	570
72	1018	50.175424	570
72	1232	55.104424	570
73	322	25.146424	0.000424
73	469	32.190849002447	0.000424
73	533	35.172424	0.000424
73	625	37.20584892995	0.000424
73	838	45.167424	0.000424
73	948	47.214849050716	0.000424
73	1018	50.175424	0.000424
73	1232	55.104424	0.000424
74	428	32.175	512
74	571	37.182	512
74	900	47.149	512
74	1051	52.147	512
74	1274	57.188	512
75	429	32.175	520
75	572	37.182	520
75	901	47.149	520
75	1052	52.147	520
75	1275	57.188	520
76	431	32.175	540
76	574	37.182	540
76	903	47.149	540
76	1054	52.147	540
76	1277	57.188	540
77	431	32.175	540
77	574	37.182	540
77	903	47.149	540
77	1054	52.147	540
77	1277	57.188	540
78	434	32.175	542
78	577	37.182	542
78	906	47.149	542
78	1057	52.147	542
78	1280	57.188	542
79	434	32.175	570
79	577	37.182	570
79	906	47.149	570
79	1057	52.147	570
79	1280	57.188	570
80	434	32.175	1
80	438	32.175	0
80	577	37.182	1
80	581	37.182	0
[...]
130	649	8.1	0
130	649	8.2	0
130	649	8.3	0
130	649	8.4	0
130	649	8.5	0
130	649	8.6	0
130	649	8.7	0
130	649	8.8	0
130	649	8.9	0
130	649	9	0
130	649	9.1	0
130	649	9.2	0
130	649	9.3	0
130	649	9.4	0
130	649	9.5	0
130	649	9.6	0
130	649	9.7	0
130	649	9.8	0
130	649	9.9	0
130	649	10	0
130	649	10.1	0
130	649	10.2	0
130	649	10.3	0
130	649	10.4	0
130	649	10.5	0
130	649	10.6	0
130	649	10.7	0
130	649	10.8	0
130	649	10.9	0
130	649	11	0
130	649	11.1	0
130	649	11.2	0
130	649	11.3	0
130	649	11.4	0
130	649	11.5	0
130	649	11.6	0
130	649	11.7	0
130	649	11.8	0
130	649	11.9	0
130	649	12	0
130	649	12.1	0
130	649	12.2	0
130	649	12.3	0
130	649	12.4	0
130	649	12.5	0
130	649	12.6	0
130	649	12.7	0
130	649	12.8	0
130	649	12.9	0
130	649	13	0
130	649	13.1	0
130	649	13.2	0
130	649	13.3	0
130	649	13.4	0
130	649	13.5	0
130	649	13.6	0
130	649	13.7	0
130	649	13.8	0
130	649	13.9	0
130	649	14	0
130	649	14.1	0
130	649	14.2	0
130	649	14.3	0
130	649	14.4	0
130	649	14.5	0
130	649	14.6	0
130	649	14.7	0
130	649	14.8	0
130	649	14.9	0
130	649	15	0
130	649	15.1	0
130	649	15.2	0
130	649	15.3	0
130	649	15.4	0
130	649	15.5	0
130	649	15.6	0
130	649	15.7	0
130	649	15.8	0
130	649	15.9	0
130	649	16	0
130	649	16.1	0
130	649	16.2	0
130	649	16.3	0
130	649	16.4	0
130	649	16.5	0
130	649	16.6	0
130	649	16.7	0
130	649	16.8	0
130	649	16.9	0
130	649	17	0
130	649	17.1	0
130	649	17.2	0
130	649	17.3	0
130	649	17.4	0
130	649	17.5	0
130	649	17.6	0
130	649	17.7	0
130	649	17.8	0
130	649	17.9	0
130	649	18	0
130	649	18.1	0
130	649	18.2	0
130	649	18.3	0
130	649	18.4	0
130	649	18.5	0
130	649	18.6	0
130	649	18.7	0
130	649	18.8	0
130	649	18.9	0
130	649	19	0
130	649	19.1	0
130	649	19.2	0
130	649	19.3	0
130	649	19.4	0
130	649	19.5	0
130	649	19.6	0
130	649	19.7	0
130	649	19.8	0
130	649	19.9	0
130	649	20	0
130	649	20.1	0
130	649	20.2	0
130	649	20.3	0
130	649	20.4	0
130	649	20.5	0
130	649	20.6	0
130	649	20.7	0
130	649	20.8	0
130	649	20.9	0
130	649	21	0
130	649	21.1	0
130	649	21.2	0
130	649	21.3	0
130	649	21.4	0
130	649	21.5	0
130	649	21.6	0
130	649	21.7	0
130	649	21.8	0
130	649	21.9	0
130	649	22	0
130	649	22.1	0
130	649	22.2	0
130	649	22.3	0
130	649	22.4	0
130	649	22.5	0
130	649	22.6	0
130	649	22.7	0
130	649	22.8	0
130	649	22.9	0
130	649	23	0
130	649	23.1	0
130	649	23.2	0
130	649	23.3	0
130	649	23.4	0
130	649	23.5	0
130	649	23.6	0
130	649	23.7	0
130	649	23.8	0
130	649	23.9	0
130	649	24	0
130	649	24.1	0
130	649	24.2	0
130	649	24.3	0
130	649	24.4	0
130	649	24.5	0
130	649	24.6	0
130	649	24.7	0
130	649	24.8	0
130	649	24.9	0
130	649	25	0
130	649	25.1	0
130	649	25.2	0
130	649	25.3	0
130	649	25.4	0
130	649	25.5	0
130	649	25.6	0
130	649	25.7	0
130	649	25.8	0
130	649	25.9	0
130	649	26	0
130	649	26.1	0
130	649	26.2	0
130	649	26.3	0
130	649	26.4	0
130	649	26.5	0
130	649	26.6	0
130	649	26.7	0
130	649	26.8	0
130	649	26.9	0
130	649	27	0
130	649	27.1	0
130	649	27.2	0
130	649	27.3	0
130	649	27.4	0
130	649	27.5	0
130	649	27.6	0
130	649	27.7	0
130	649	27.8	0
130	649	27.9	0
130	649	28	0
130	649	28.1	0
130	649	28.2	0
130	649	28.3	0
130	649	28.4	0
130	649	28.5	0
130	649	28.6	0
130	649	28.7	0
130	649	28.8	0
130	649	28.9	0
130	649	29	0
130	649	29.1	0
130	649	29.2	0
130	649	29.3	0
130	649	29.4	0
130	649	29.5	0
130	649	29.6	0
130	649	29.7	0
130	649	29.8	0
130	649	29.9	0
130	649	30	0
130	649	30.1	0
130	649	30.2	0
130	649	30.3	0
130	649	30.4	0
130	649	30.5	0
130	649	30.6	0
130	649	30.7	0
130	649	30.8	0
130	649	30.9	0
130	649	31	0
130	649	31.1	0
130	649	31.2	0
130	649	31.3	0
130	649	31.4	0
130	649	31.5	0
130	649	31.6	0
130	649	31.7	0
130	649	31.8	0
130	649	31.9	0
130	649	32	0
130	649	32.1	0
130	649	32.2	0
130	649	32.3	0
130	649	32.4	0
130	649	32.5	0
130	649	32.6	0
130	649	32.7	0
130	649	32.8	0
130	649	32.9	0
130	649	33	0
130	649	33.1	0
130	649	33.2	0
130	649	33.3	0
130	649	33.4	0
130	649	33.5	0
130	649	33.6	0
130	649	33.7	0
130	649	33.8	0
130	649	33.9	0
130	649	34	0
130	649	34.1	0
130	649	34.2	0
130	649	34.3	0
130	649	34.4	0
130	649	34.5	0
130	649	34.6	0
130	649	34.7	0
130	649	34.8	0
130	649	34.9	0
130	649	35	0
130	649	35.1	0
130	649	35.2	0
130	649	35.3	0
130	649	35.4	0
130	649	35.5	0
130	649	35.6	0
130	649	35.7	0
130	649	35.8	0
130	649	35.9	0
130	649	36	0
130	649	36.1	0
130	649	36.2	0
130	649	36.3	0
130	649	36.4	0
130	649	36.5	0
130	649	36.6	0
130	649	36.7	0
130	649	36.8	0
130	649	36.9	0
130	649	37	0
130	649	37.1	0
130	649	37.2	0
130	649	37.3	0
130	649	37.4	0
130	649	37.5	0
130	649	37.6	0
130	649	37.7	0
130	649	37.8	0
130	649	37.9	0
130	649	38	0
130	649	38.1	0
130	721	38.2	81920
130	721	38.3	0
130	721	38.4	0
130	721	38.5	0
130	721	38.6	0
130	721	38.7	0
130	721	38.8	0
130	721	38.9	0
130	721	39	0
130	721	39.1	0
130	721	39.2	0
130	721	39.3	0
130	721	39.4	0
130	721	39.5	0
130	721	39.6	0
130	721	39.7	0
130	721	39.8	0
130	721	39.9	0
130	721	40	0
130	721	40.1	0
130	795	40.2	122880
130	795	40.3	0
130	795	40.4	0
130	795	40.5	0
130	795	40.6	0
130	795	40.7	0
130	795	40.8	0
130	795	40.9	0
130	795	41	0
130	795	41.1	0
130	795	41.2	0
130	795	41.3	0
130	795	41.4	0
130	795	41.5	0
130	795	41.6	0
130	795	41.7	0
130	795	41.8	0
130	795	41.9	0
130	795	42	0
130	795	42.1	0
130	795	42.2	0
130	795	42.3	0
130	795	42.4	0
130	795	42.5	0
130	795	42.6	0
130	795	42.7	0
130	795	42.8	0
130	795	42.9	0
130	795	43	0
130	795	43.1	0
130	971	43.2	40960
130	971	43.3	0
130	971	43.4	0
130	971	43.5	0
130	971	43.6	0
130	971	43.7	0
130	971	43.8	0
130	971	43.9	0
130	971	44	0
130	971	44.1	0
130	971	44.2	0
130	971	44.3	0
130	971	44.4	0
130	971	44.5	0
130	971	44.6	0
130	971	44.7	0
130	971	44.8	0
130	971	44.9	0
130	971	45	0
130	971	45.1	0
130	971	45.2	0
130	971	45.3	0
130	971	45.4	0
130	971	45.5	0
130	971	45.6	0
130	971	45.7	0
130	971	45.8	0
130	971	45.9	0
130	971	46	0
130	971	46.1	0
130	971	46.2	0
130	971	46.3	0
130	971	46.4	0
130	971	46.5	0
130	971	46.6	0
130	971	46.7	0
130	971	46.8	0
130	971	46.9	0
130	971	47	0
130	971	47.1	0
130	971	47.2	0
130	971	47.3	0
130	971	47.4	0
130	971	47.5	0
130	971	47.6	0
130	971	47.7	0
130	971	47.8	0
130	971	47.9	0
130	971	48	0
130	971	48.1	0
130	1092	48.2	40960
130	1092	48.3	0
130	1092	48.4	0
130	1092	48.5	0
130	1092	48.6	0
130	1092	48.7	0
130	1092	48.8	0
130	1092	48.9	0
130	1092	49	0
130	1092	49.1	0
130	1092	49.2	0
130	1092	49.3	0
130	1092	49.4	0
130	1092	49.5	0
130	1092	49.6	0
130	1092	49.7	0
130	1092	49.8	0
130	1092	49.9	0
130	1092	50	0
130	1092	50.1	0
130	1092	50.2	0
130	1092	50.3	0
130	1092	50.4	0
130	1092	50.5	0
130	1092	50.6	0
130	1092	50.7	0
130	1092	50.8	0
130	1092	50.9	0
130	1092	51	0
130	1092	51.1	0
130	1092	51.2	0
130	1092	51.3	0
130	1092	51.4	0
130	1092	51.5	0
130	1092	51.6	0
130	1092	51.7	0
130	1092	51.8	0
130	1092	51.9	0
130	1092	52	0
130	1092	52.1	0
130	1092	52.2	0
130	1092	52.3	0
130	1092	52.4	0
130	1092	52.5	0
130	1092	52.6	0
130	1092	52.7	0
130	1092	52.8	0
130	1092	52.9	0
130	1092	53	0
130	1092	53.1	0
130	1153	53.2	81920
130	1239	53.3	40960
130	1239	53.4	0
130	1239	53.5	0
130	1239	53.6	0
130	1239	53.7	0
130	1239	53.8	0
130	1239	53.9	0
130	1239	54	0
130	1239	54.1	0
130	1239	54.2	0
130	1239	54.3	0
130	1239	54.4	0
130	1239	54.5	0
130	1239	54.6	0
130	1239	54.7	0
130	1239	54.8	0
130	1239	54.9	0
130	1239	55	0
130	1239	55.1	0
131	649	38.191	512
131	728	40.191424966994	512
131	1092	53.188	512
132	650	38.191	520
132	729	40.191424966994	520
132	1093	53.188	520
133	652	38.191	540
133	731	40.191424966994	540
133	1095	53.188	540
134	652	38.191	540
134	731	40.191424966994	540
134	1095	53.188	540
135	655	38.191	542
135	734	40.191424966994	542
135	1098	53.188	542
136	655	38.191	570
136	734	40.191424966994	570
136	1098	53.188	570
137	655	38.191	1
137	659	38.191	0
137	734	40.191424966994	1
137	738	40.191424966994	0
137	1098	53.188	1
137	1102	53.188	0
138	655	38.191	14
138	734	40.191424966994	1
138	1098	53.188	15
139	655	38.191	1
139	658	38.191	0
139	734	40.191424966994	1
139	737	40.191424966994	0
139	1098	53.188	1
139	1101	53.188	0
140	656	38.191	520
140	720	40.107424966994	520
140	735	40.191424966994	520
140	1099	53.188	520
140	1152	53.24384906698	520
140	1238	55.10442483772	520
141	656	38.191	1
141	720	40.107424966994	2
141	735	40.191424966994	3
141	1099	53.188	4
141	1152	53.24384906698	5
141	1238	55.10442483772	6
142	659	38.191	570
142	738	40.191424966994	570
142	1102	53.188	570
143	659	38.191	0
143	738	40.191424966994	0
143	1102	53.188	0
144	659	38.191	1
144	666	38.191424	0
144	738	40.191424966994	1
144	745	40.191848966994	0
144	1102	53.188	1
144	1111	53.188424	0
145	659	38.191	12000000
145	738	40.191424966994	12000000
145	1102	53.188	12000000
146	659	38.191	570
146	738	40.191424966994	570
146	1102	53.188	570
147	659	38.191	1
147	666	38.191424	0
147	738	40.191424966994	1
147	745	40.191848966994	0
147	1102	53.188	1
147	1111	53.188424	0
148	660	38.191	1
148	661	38.191	2
148	666	38.191424	1
148	667	38.191424	0
148	739	40.191424966994	1
148	740	40.191424966994	2
148	745	40.191848966994	1
148	746	40.191848966994	0
148	1103	53.188	1
148	1104	53.188	2
148	1111	53.188424	1
148	1112	53.188424	0
149	666	38.191424	570
149	745	40.191848966994	570
149	1111	53.188424	570
150	666	38.191424	570
150	745	40.191848966994	570
150	1111	53.188424	570
151	666	38.191424	570
151	745	40.191848966994	570
151	1111	53.188424	570
152	666	38.191424	0.000424
152	745	40.191848966994	0.000424
152	1111	53.188424	0.000424
153	717	40.107424966994	570
153	1149	53.24384906698	570
153	1235	55.10442483772	570
154	717	40.107424966994	570
154	1149	53.24384906698	570
154	1235	55.10442483772	570
155	717	40.107424966994	570
155	1149	53.24384906698	570
155	1235	55.10442483772	570
156	717	40.107424966994	570
156	1149	53.24384906698	570
156	1235	55.10442483772	570
157	717	40.107424966994	542
157	1149	53.24384906698	542
157	1235	55.10442483772	542
163	782	42.192	0.091999999999999
163	1050	52.109	0.0090000000000003
163	1273	57.14	0.039999999999999
164	795	43.102	0.0019999999999953
164	971	48.167	0.067
164	1153	53.24384906698	0.14384906698
165	876	47.127	512
166	877	47.127	520
167	879	47.127	540
168	879	47.127	540
169	882	47.127	542
170	882	47.127	570
171	882	47.127	1
171	886	47.127	0
172	882	47.127	9
173	882	47.127	1
173	885	47.127	0
174	886	47.127	570
175	886	47.127	0
176	886	47.127	1
176	893	47.127424	0
177	886	47.127	12000000
178	886	47.127	570
179	886	47.127	1
179	893	47.127424	0
180	887	47.127	1
180	888	47.127	2
180	893	47.127424	1
180	894	47.127424	0
181	893	47.127424	570
182	893	47.127424	570
183	893	47.127424	570
184	893	47.127424	0.000424
185	981	49.1	0
185	981	49.1	0
185	981	49.1	2
185	1182	54.134	3
185	1191	54.134424	2
186	981	49.1	3
187	981	49.1	1
187	1182	54.134	0
187	1191	54.134424	1
188	981	49.1	15
189	1087	53.1	0
189	1087	53.1	0
189	1087	53.1	2
190	1087	53.1	3
191	1087	53.1	1
192	1087	53.1	15
193	1168	54.1	1
194	1168	54.1	0
195	1170	54.1	1
196	1171	54.134	512
196	1179	54.134	512
197	1171	0.1	0
197	1171	0.2	0
197	1171	0.3	0
197	1171	0.4	0
197	1171	0.5	0
197	1171	0.6	0
197	1171	0.7	0
197	1171	0.8	0
197	1171	0.9	0
197	1171	1	0
197	1171	1.1	0
197	1171	1.2	0
197	1171	1.3	0
197	1171	1.4	0
197	1171	1.5	0
197	1171	1.6	0
197	1171	1.7	0
197	1171	1.8	0
197	1171	1.9	0
197	1171	2	0
197	1171	2.1	0
197	1171	2.2	0
197	1171	2.3	0
197	1171	2.4	0
197	1171	2.5	0
197	1171	2.6	0
197	1171	2.7	0
197	1171	2.8	0
197	1171	2.9	0
197	1171	3	0
197	1171	3.1	0
197	1171	3.2	0
197	1171	3.3	0
197	1171	3.4	0
197	1171	3.5	0
197	1171	3.6	0
197	1171	3.7	0
197	1171	3.8	0
197	1171	3.9	0
197	1171	4	0
197	1171	4.1	0
197	1171	4.2	0
197	1171	4.3	0
197	1171	4.4	0
197	1171	4.5	0
197	1171	4.6	0
197	1171	4.7	0
197	1171	4.8	0
197	1171	4.9	0
197	1171	5	0
197	1171	5.1	0
197	1171	5.2	0
197	1171	5.3	0
197	1171	5.4	0
197	1171	5.5	0
197	1171	5.6	0
197	1171	5.7	0
197	1171	5.8	0
197	1171	5.9	0
197	1171	6	0
197	1171	6.1	0
197	1171	6.2	0
197	1171	6.3	0
197	1171	6.4	0
197	1171	6.5	0
197	1171	6.6	0
197	1171	6.7	0
197	1171	6.8	0
197	1171	6.9	0
197	1171	7	0
197	1171	7.1	0
197	1171	7.2	0
197	1171	7.3	0
197	1171	7.4	0
197	1171	7.5	0
197	1171	7.6	0
197	1171	7.7	0
197	1171	7.8	0
197	1171	7.9	0
197	1171	8	0
197	1171	8.1	0
197	1171	8.2	0
197	1171	8.3	0
197	1171	8.4	0
197	1171	8.5	0
197	1171	8.6	0
197	1171	8.7	0
197	1171	8.8	0
197	1171	8.9	0
197	1171	9	0
197	1171	9.1	0
197	1171	9.2	0
197	1171	9.3	0
197	1171	9.4	0
197	1171	9.5	0
197	1171	9.6	0
197	1171	9.7	0
197	1171	9.8	0
197	1171	9.9	0
197	1171	10	0
197	1171	10.1	0
197	1171	10.2	0
197	1171	10.3	0
197	1171	10.4	0
197	1171	10.5	0
197	1171	10.6	0
197	1171	10.7	0
197	1171	10.8	0
197	1171	10.9	0
197	1171	11	0
197	1171	11.1	0
197	1171	11.2	0
197	1171	11.3	0
197	1171	11.4	0
197	1171	11.5	0
197	1171	11.6	0
197	1171	11.7	0
197	1171	11.8	0
197	1171	11.9	0
197	1171	12	0
197	1171	12.1	0
197	1171	12.2	0
197	1171	12.3	0
197	1171	12.4	0
197	1171	12.5	0
197	1171	12.6	0
197	1171	12.7	0
197	1171	12.8	0
197	1171	12.9	0
197	1171	13	0
197	1171	13.1	0
197	1171	13.2	0
197	1171	13.3	0
197	1171	13.4	0
197	1171	13.5	0
197	1171	13.6	0
197	1171	13.7	0
197	1171	13.8	0
197	1171	13.9	0
197	1171	14	0
197	1171	14.1	0
197	1171	14.2	0
197	1171	14.3	0
197	1171	14.4	0
197	1171	14.5	0
197	1171	14.6	0
197	1171	14.7	0
197	1171	14.8	0
197	1171	14.9	0
197	1171	15	0
197	1171	15.1	0
197	1171	15.2	0
197	1171	15.3	0
197	1171	15.4	0
197	1171	15.5	0
197	1171	15.6	0
197	1171	15.7	0
197	1171	15.8	0
197	1171	15.9	0
197	1171	16	0
197	1171	16.1	0
197	1171	16.2	0
197	1171	16.3	0
197	1171	16.4	0
197	1171	16.5	0
197	1171	16.6	0
197	1171	16.7	0
197	1171	16.8	0
197	1171	16.9	0
197	1171	17	0
197	1171	17.1	0
197	1171	17.2	0
197	1171	17.3	0
197	1171	17.4	0
197	1171	17.5	0
197	1171	17.6	0
197	1171	17.7	0
197	1171	17.8	0
197	1171	17.9	0
197	1171	18	0
197	1171	18.1	0
197	1171	18.2	0
197	1171	18.3	0
197	1171	18.4	0
197	1171	18.5	0
197	1171	18.6	0
197	1171	18.7	0
197	1171	18.8	0
197	1171	18.9	0
197	1171	19	0
197	1171	19.1	0
197	1171	19.2	0
197	1171	19.3	0
197	1171	19.4	0
197	1171	19.5	0
197	1171	19.6	0
197	1171	19.7	0
197	1171	19.8	0
197	1171	19.9	0
197	1171	20	0
197	1171	20.1	0
197	1171	20.2	0
197	1171	20.3	0
197	1171	20.4	0
197	1171	20.5	0
197	1171	20.6	0
197	1171	20.7	0
197	1171	20.8	0
197	1171	20.9	0
197	1171	21	0
197	1171	21.1	0
197	1171	21.2	0
197	1171	21.3	0
197	1171	21.4	0
197	1171	21.5	0
197	1171	21.6	0
197	1171	21.7	0
197	1171	21.8	0
197	1171	21.9	0
197	1171	22	0
197	1171	22.1	0
197	1171	22.2	0
197	1171	22.3	0
197	1171	22.4	0
197	1171	22.5	0
197	1171	22.6	0
197	1171	22.7	0
197	1171	22.8	0
197	1171	22.9	0
197	1171	23	0
197	1171	23.1	0
197	1171	23.2	0
197	1171	23.3	0
197	1171	23.4	0
197	1171	23.5	0
197	1171	23.6	0
197	1171	23.7	0
197	1171	23.8	0
197	1171	23.9	0
197	1171	24	0
197	1171	24.1	0
197	1171	24.2	0
197	1171	24.3	0
197	1171	24.4	0
197	1171	24.5	0
197	1171	24.6	0
197	1171	24.7	0
197	1171	24.8	0
197	1171	24.9	0
197	1171	25	0
197	1171	25.1	0
197	1171	25.2	0
197	1171	25.3	0
197	1171	25.4	0
197	1171	25.5	0
197	1171	25.6	0
197	1171	25.7	0
197	1171	25.8	0
197	1171	25.9	0
197	1171	26	0
197	1171	26.1	0
197	1171	26.2	0
197	1171	26.3	0
197	1171	26.4	0
197	1171	26.5	0
197	1171	26.6	0
197	1171	26.7	0
197	1171	26.8	0
197	1171	26.9	0
197	1171	27	0
197	1171	27.1	0
197	1171	27.2	0
197	1171	27.3	0
197	1171	27.4	0
197	1171	27.5	0
197	1171	27.6	0
197	1171	27.7	0
197	1171	27.8	0
197	1171	27.9	0
197	1171	28	0
197	1171	28.1	0
197	1171	28.2	0
197	1171	28.3	0
197	1171	28.4	0
197	1171	28.5	0
197	1171	28.6	0
197	1171	28.7	0
197	1171	28.8	0
197	1171	28.9	0
197	1171	29	0
197	1171	29.1	0
197	1171	29.2	0
197	1171	29.3	0
197	1171	29.4	0
197	1171	29.5	0
197	1171	29.6	0
197	1171	29.7	0
197	1171	29.8	0
197	1171	29.9	0
197	1171	30	0
197	1171	30.1	0
197	1171	30.2	0
197	1171	30.3	0
197	1171	30.4	0
197	1171	30.5	0
197	1171	30.6	0
197	1171	30.7	0
197	1171	30.8	0
197	1171	30.9	0
197	1171	31	0
197	1171	31.1	0
197	1171	31.2	0
197	1171	31.3	0
197	1171	31.4	0
197	1171	31.5	0
197	1171	31.6	0
197	1171	31.7	0
197	1171	31.8	0
197	1171	31.9	0
197	1171	32	0
197	1171	32.1	0
197	1171	32.2	0
197	1171	32.3	0
197	1171	32.4	0
197	1171	32.5	0
197	1171	32.6	0
197	1171	32.7	0
197	1171	32.8	0
197	1171	32.9	0
197	1171	33	0
197	1171	33.1	0
197	1171	33.2	0
197	1171	33.3	0
197	1171	33.4	0
197	1171	33.5	0
197	1171	33.6	0
197	1171	33.7	0
197	1171	33.8	0
197	1171	33.9	0
197	1171	34	0
197	1171	34.1	0
197	1171	34.2	0
197	1171	34.3	0
197	1171	34.4	0
197	1171	34.5	0
197	1171	34.6	0
197	1171	34.7	0
197	1171	34.8	0
197	1171	34.9	0
197	1171	35	0
197	1171	35.1	0
197	1171	35.2	0
197	1171	35.3	0
197	1171	35.4	0
197	1171	35.5	0
197	1171	35.6	0
197	1171	35.7	0
197	1171	35.8	0
197	1171	35.9	0
197	1171	36	0
197	1171	36.1	0
197	1171	36.2	0
197	1171	36.3	0
197	1171	36.4	0
197	1171	36.5	0
197	1171	36.6	0
197	1171	36.7	0
197	1171	36.8	0
197	1171	36.9	0
197	1171	37	0
197	1171	37.1	0
197	1171	37.2	0
197	1171	37.3	0
197	1171	37.4	0
197	1171	37.5	0
197	1171	37.6	0
197	1171	37.7	0
197	1171	37.8	0
197	1171	37.9	0
197	1171	38	0
197	1171	38.1	0
197	1171	38.2	0
197	1171	38.3	0
197	1171	38.4	0
197	1171	38.5	0
197	1171	38.6	0
197	1171	38.7	0
197	1171	38.8	0
197	1171	38.9	0
197	1171	39	0
197	1171	39.1	0
197	1171	39.2	0
197	1171	39.3	0
197	1171	39.4	0
197	1171	39.5	0
197	1171	39.6	0
197	1171	39.7	0
197	1171	39.8	0
197	1171	39.9	0
197	1171	40	0
197	1171	40.1	0
197	1171	40.2	0
197	1171	40.3	0
197	1171	40.4	0
197	1171	40.5	0
197	1171	40.6	0
197	1171	40.7	0
197	1171	40.8	0
197	1171	40.9	0
197	1171	41	0
197	1171	41.1	0
197	1171	41.2	0
197	1171	41.3	0
197	1171	41.4	0
197	1171	41.5	0
197	1171	41.6	0
197	1171	41.7	0
197	1171	41.8	0
197	1171	41.9	0
197	1171	42	0
197	1171	42.1	0
197	1171	42.2	0
197	1171	42.3	0
197	1171	42.4	0
197	1171	42.5	0
197	1171	42.6	0
197	1171	42.7	0
197	1171	42.8	0
197	1171	42.9	0
197	1171	43	0
197	1171	43.1	0
197	1171	43.2	0
197	1171	43.3	0
197	1171	43.4	0
197	1171	43.5	0
197	1171	43.6	0
197	1171	43.7	0
197	1171	43.8	0
197	1171	43.9	0
197	1171	44	0
197	1171	44.1	0
197	1171	44.2	0
197	1171	44.3	0
197	1171	44.4	0
197	1171	44.5	0
197	1171	44.6	0
197	1171	44.7	0
197	1171	44.8	0
197	1171	44.9	0
197	1171	45	0
197	1171	45.1	0
197	1171	45.2	0
197	1171	45.3	0
197	1171	45.4	0
197	1171	45.5	0
197	1171	45.6	0
197	1171	45.7	0
197	1171	45.8	0
197	1171	45.9	0
197	1171	46	0
197	1171	46.1	0
197	1171	46.2	0
197	1171	46.3	0
197	1171	46.4	0
197	1171	46.5	0
197	1171	46.6	0
197	1171	46.7	0
197	1171	46.8	0
197	1171	46.9	0
197	1171	47	0
197	1171	47.1	0
197	1171	47.2	0
197	1171	47.3	0
197	1171	47.4	0
197	1171	47.5	0
197	1171	47.6	0
197	1171	47.7	0
197	1171	47.8	0
197	1171	47.9	0
197	1171	48	0
197	1171	48.1	0
197	1171	48.2	0
197	1171	48.3	0
197	1171	48.4	0
197	1171	48.5	0
197	1171	48.6	0
197	1171	48.7	0
197	1171	48.8	0
197	1171	48.9	0
197	1171	49	0
197	1171	49.1	0
197	1171	49.2	0
197	1171	49.3	0
197	1171	49.4	0
197	1171	49.5	0
197	1171	49.6	0
197	1171	49.7	0
197	1171	49.8	0
197	1171	49.9	0
197	1171	50	0
197	1171	50.1	0
197	1171	50.2	0
197	1171	50.3	0
197	1171	50.4	0
197	1171	50.5	0
197	1171	50.6	0
197	1171	50.7	0
197	1171	50.8	0
197	1171	50.9	0
197	1171	51	0
197	1171	51.1	0
197	1171	51.2	0
197	1171	51.3	0
197	1171	51.4	0
197	1171	51.5	0
197	1171	51.6	0
197	1171	51.7	0
197	1171	51.8	0
197	1171	51.9	0
197	1171	52	0
197	1171	52.1	0
197	1171	52.2	0
197	1171	52.3	0
197	1171	52.4	0
197	1171	52.5	0
197	1171	52.6	0
197	1171	52.7	0
197	1171	52.8	0
197	1171	52.9	0
197	1171	53	0
197	1171	53.1	0
197	1171	53.2	0
197	1171	53.3	0
197	1171	53.4	0
197	1171	53.5	0
197	1171	53.6	0
197	1171	53.7	0
197	1171	53.8	0
197	1171	53.9	0
197	1171	54	0
197	1171	54.1	0
198	1171	54.134	512
199	1172	54.134	520
200	1174	54.134	540
201	1174	54.134	540
202	1177	54.134	542
203	1177	54.134	570
204	1177	54.134	1
204	1181	54.134	0
205	1177	54.134	2
206	1177	54.134	1
206	1180	54.134	0
207	1178	54.134	520
208	1178	54.134	1
209	1181	54.134	570
210	1181	54.134	0
211	1181	54.134	1
211	1190	54.134424	0
212	1181	54.134	12000000
213	1181	54.134	570
214	1181	54.134	1
214	1190	54.134424	0
215	1182	54.134	1
215	1183	54.134	2
215	1190	54.134424	1
215	1191	54.134424	0
216	1190	54.134424	570
217	1190	54.134424	570
218	1190	54.134424	570
219	1190	54.134424	0.000424
12	1286	55.2	81920
12	1286	55.3	0
12	1286	55.4	0
12	1286	55.5	0
12	1286	55.6	0
12	1286	55.7	0
12	1286	55.8	0
12	1286	55.9	0
12	1286	56	0
12	1286	56.1	0
12	1286	56.2	0
12	1286	56.3	0
12	1286	56.4	0
12	1286	56.5	0
12	1286	56.6	0
12	1286	56.7	0
12	1286	56.8	0
12	1286	56.9	0
12	1286	57	0
12	1286	57.1	0
12	1286	57.188000445424	0
