version 2
run General-0-20220414-23:42:22-4592
attr configname General
attr datetime 20220414-23:42:22
attr experiment General
attr inifile omnetpp.ini
attr iterationvars ""
attr iterationvarsf ""
attr measurement ""
attr network Scenario
attr processid 4592
attr repetition 0
attr replication #0
attr resultdir results
attr runnumber 0
attr seedset 0
param *.node[*].numApps 1
param *.node[*].app[0].typename "\"v2v_caching.veins_inet.VeinsInetSampleApplication\""
param *.node[*].app[0].interface "\"wlan0\""
param *.node[*].wlan[0].opMode "\"p\""
param *.node[*].wlan[0].radio.typename "\"Ieee80211DimensionalRadio\""
param *.node[*].wlan[0].radio.bandName "\"5.9 GHz\""
param *.node[*].wlan[0].radio.channelNumber 3
param *.node[*].wlan[0].radio.transmitter.power 20mW
param *.node[*].wlan[0].radio.bandwidth "10 MHz"
param *.node[*].wlan[*].radio.antenna.mobility.typename "\"AttachedMobility\""
param *.node[*].wlan[*].radio.antenna.mobility.mobilityModule "\"^.^.^.^.mobility\""
param *.node[*].wlan[*].radio.antenna.mobility.offsetX -2.5m
param *.node[*].wlan[*].radio.antenna.mobility.offsetZ 1.5m
param *.node[*].wlan[*].radio.antenna.mobility.constraintAreaMinX 0m
param *.node[*].wlan[*].radio.antenna.mobility.constraintAreaMaxX 0m
param *.node[*].wlan[*].radio.antenna.mobility.constraintAreaMinY 0m
param *.node[*].wlan[*].radio.antenna.mobility.constraintAreaMaxY 0m
param *.node[*].wlan[*].radio.antenna.mobility.constraintAreaMinZ 0m
param *.node[*].wlan[*].radio.antenna.mobility.constraintAreaMaxZ 0m
param *.node[*].ipv4.configurator.typename "\"HostAutoConfigurator\""
param *.node[*].ipv4.configurator.interfaces "\"wlan0\""
param *.node[*].ipv4.configurator.mcastGroups "\"224.0.0.1\""
param *.node[*].mobility.typename "\"VeinsInetMobility\""
param *.manager.updateInterval 0.1s
param *.manager.host "\"localhost\""
param *.manager.port 9999
param *.manager.autoShutdown true
param *.manager.launchConfig "xmldoc(\"grid.launchd.xml\")"
param *.manager.moduleType "\"v2v_caching.veins_inet.VeinsInetCar\""
param *.physicalEnvironment.config "xmldoc(\"obstacles.xml\")"
param *.radioMedium.obstacleLoss.typename "\"IdealObstacleLoss\""

vector 0 Scenario.node[0].wlan[0].radio radioMode:vector ETV
attr interpolationmode sample-hold
attr source radioModeChanged
attr title "Radio mode, vector"
vector 1 Scenario.node[0].wlan[0].radio radioChannel:vector ETV
attr interpolationmode sample-hold
attr source radioChannelChanged
attr title "Radio channel, vector"
vector 2 Scenario.node[0].wlan[0].radio receptionState:vector ETV
attr interpolationmode sample-hold
attr source receptionStateChanged
attr title "Radio reception state, vector"
vector 3 Scenario.node[0].wlan[0].mac.dcf.recoveryProcedure contentionWindowChanged:vector ETV
attr interpolationmode sample-hold
attr title "contention window, vector"
vector 4 Scenario.node[1].wlan[0].radio radioMode:vector ETV
attr interpolationmode sample-hold
attr source radioModeChanged
attr title "Radio mode, vector"
vector 5 Scenario.node[1].wlan[0].radio radioChannel:vector ETV
attr interpolationmode sample-hold
attr source radioChannelChanged
attr title "Radio channel, vector"
vector 6 Scenario.node[1].wlan[0].radio receptionState:vector ETV
attr interpolationmode sample-hold
attr source receptionStateChanged
attr title "Radio reception state, vector"
vector 7 Scenario.node[1].wlan[0].mac.dcf.recoveryProcedure contentionWindowChanged:vector ETV
attr interpolationmode sample-hold
attr title "contention window, vector"
vector 8 Scenario.node[2].wlan[0].radio radioMode:vector ETV
attr interpolationmode sample-hold
attr source radioModeChanged
attr title "Radio mode, vector"
vector 9 Scenario.node[2].wlan[0].radio radioChannel:vector ETV
attr interpolationmode sample-hold
attr source radioChannelChanged
attr title "Radio channel, vector"
vector 10 Scenario.node[2].wlan[0].radio receptionState:vector ETV
attr interpolationmode sample-hold
attr source receptionStateChanged
attr title "Radio reception state, vector"
vector 11 Scenario.node[2].wlan[0].mac.dcf.recoveryProcedure contentionWindowChanged:vector ETV
attr interpolationmode sample-hold
attr title "contention window, vector"
vector 12 Scenario.node[3].wlan[0].radio radioMode:vector ETV
attr interpolationmode sample-hold
attr source radioModeChanged
attr title "Radio mode, vector"
vector 13 Scenario.node[3].wlan[0].radio radioChannel:vector ETV
attr interpolationmode sample-hold
attr source radioChannelChanged
attr title "Radio channel, vector"
vector 14 Scenario.node[3].wlan[0].radio receptionState:vector ETV
attr interpolationmode sample-hold
attr source receptionStateChanged
attr title "Radio reception state, vector"
vector 15 Scenario.node[3].wlan[0].mac.dcf.recoveryProcedure contentionWindowChanged:vector ETV
attr interpolationmode sample-hold
attr title "contention window, vector"
vector 16 Scenario.node[4].wlan[0].radio radioMode:vector ETV
attr interpolationmode sample-hold
attr source radioModeChanged
attr title "Radio mode, vector"
vector 17 Scenario.node[4].wlan[0].radio radioChannel:vector ETV
attr interpolationmode sample-hold
attr source radioChannelChanged
attr title "Radio channel, vector"
vector 18 Scenario.node[4].wlan[0].radio receptionState:vector ETV
attr interpolationmode sample-hold
attr source receptionStateChanged
attr title "Radio reception state, vector"
vector 19 Scenario.node[4].wlan[0].mac.dcf.recoveryProcedure contentionWindowChanged:vector ETV
attr interpolationmode sample-hold
attr title "contention window, vector"
vector 20 Scenario.node[3].cache requestsReceived:vector ETV
attr interpolationmode none
attr source receive
attr title "requests received, vector"
vector 21 Scenario.node[3].cache hitRate:vector ETV
attr interpolationmode none
attr source hitRate
attr title "hit rate, vector"
vector 22 Scenario.node[3].dataServer requestsReceived:vector ETV
attr interpolationmode none
attr source receive
attr title "requests received, vector"
vector 23 Scenario.node[3].app[0] packetReceived:vector(packetBytes) ETV
attr interpolationmode none
attr source packetReceived
attr title "packets received, vector(packetBytes)"
vector 24 Scenario.node[3].app[0] throughput:vector ETV
attr source throughput(packetReceived)
attr title "throughput, vector"
attr unit bps
vector 25 Scenario.node[3].app[0] RequestReceiveTime:vector ETV
attr interpolationmode none
attr source receiveTime
attr title "request time, vector"
vector 26 Scenario.node[1].cache requestsReceived:vector ETV
attr interpolationmode none
attr source receive
attr title "requests received, vector"
vector 27 Scenario.node[1].cache hitRate:vector ETV
attr interpolationmode none
attr source hitRate
attr title "hit rate, vector"
vector 28 Scenario.node[1].dataServer requestsReceived:vector ETV
attr interpolationmode none
attr source receive
attr title "requests received, vector"
vector 29 Scenario.node[1].app[0] packetReceived:vector(packetBytes) ETV
attr interpolationmode none
attr source packetReceived
attr title "packets received, vector(packetBytes)"
vector 30 Scenario.node[1].app[0] throughput:vector ETV
attr source throughput(packetReceived)
attr title "throughput, vector"
attr unit bps
vector 31 Scenario.node[1].app[0] packetSent:vector(packetBytes) ETV
attr interpolationmode none
attr source packetSent
attr title "packets sent, vector(packetBytes)"
vector 32 Scenario.node[1].udp packetSent:vector(packetBytes) ETV
attr interpolationmode none
attr source packetSent
attr title "packets sent, vector(packetBytes)"
vector 33 Scenario.node[1].lo[0].lo rcvdPkFromHl:vector(packetBytes) ETV
attr interpolationmode none
attr source packetReceivedFromUpper
attr title "packets received from higher layer, vector(packetBytes)"
vector 34 Scenario.node[1].lo[0].lo passedUpPk:vector(packetBytes) ETV
attr interpolationmode none
attr source packetSentToUpper
attr title "packets passed to higher layer, vector(packetBytes)"
vector 35 Scenario.node[1].wlan[0].mac packetReceivedFromUpper:vector(packetBytes) ETV
attr interpolationmode none
attr title "packets received from upper layer, vector(packetBytes)"
vector 36 Scenario.node[1].wlan[0].mac.dcf.channelAccess.pendingQueue packetPushed:vector(packetBytes) ETV
attr interpolationmode none
attr title "packet pushed, vector(packetBytes)"
vector 37 Scenario.node[1].wlan[0].mac.dcf.channelAccess.pendingQueue queueLength:vector ETV
attr interpolationmode sample-hold
attr source "count(packetPushed) - count(packetPopped) - count(packetRemoved) - count(packetDropped)"
attr title "queue length, vector"
vector 38 Scenario.node[1].wlan[0].mac.dcf.channelAccess.contention backoffPeriodGenerated:vector ETV
attr interpolationmode none
attr title "backoff periods, vector"
vector 39 Scenario.node[1].wlan[0].mac.dcf.channelAccess.contention backoffActive:vector ETV
attr interpolationmode sample-hold
attr source count(backoffStarted)-count(backoffStopped)
attr title "backoff active, vector"
vector 40 Scenario.node[1].udp packetReceived:vector(packetBytes) ETV
attr interpolationmode none
attr source packetReceived
attr title "packets received, vector(packetBytes)"
vector 41 Scenario.node[1].udp passedUpPk:vector(count) ETV
attr interpolationmode none
attr source packetSentToUpper
attr title "packets passed up, vector(count)"
vector 42 Scenario.node[1].wlan[0].mac.dcf.channelAccess.pendingQueue packetPopped:vector(packetBytes) ETV
attr interpolationmode none
attr title "packet popped, vector(packetBytes)"
vector 43 Scenario.node[1].wlan[0].mac.dcf.channelAccess.pendingQueue queueingTime:vector ETV
attr interpolationmode none
attr source queueingTime(packetPopped)
attr title "queueing times, vector"
attr unit s
vector 44 Scenario.node[1].wlan[0].mac.dcf.channelAccess.inProgressFrames queueLength:vector ETV
attr interpolationmode sample-hold
attr source "count(packetEnqueued) - count(packetDequeued)"
attr title "queue length, vector"
vector 45 Scenario.node[1].wlan[0].mac.dcf datarateSelected:vector ETV
attr interpolationmode none
attr title "datarates selected, vector"
vector 46 Scenario.node[1].wlan[0].mac packetSentToLower:vector(packetBytes) ETV
attr interpolationmode none
attr title "packets sent to lower layer, vector(packetBytes)"
vector 47 Scenario.node[1].wlan[0].mac.dcf frameSequenceActive:vector ETV
attr interpolationmode sample-hold
attr source count(frameSequenceStarted)-count(frameSequenceFinished)
attr title "frame sequence active, vector"
vector 48 Scenario.node[1].wlan[0].radio transmissionState:vector ETV
attr interpolationmode sample-hold
attr source transmissionStateChanged
attr title "Radio transmission state, vector"
vector 49 Scenario.node[1].wlan[0].mac.dcf packetSentToPeer:vector(packetBytes) ETV
attr interpolationmode none
attr title "packets sent, vector(packetBytes)"
vector 50 Scenario.node[1].wlan[0].mac.dcf packetSentToPeerMulticast:vector(packetBytes) ETV
attr interpolationmode none
attr source ieee80211Multicast(packetSentToPeer)
attr title "packets sent: multicast, vector(packetBytes)"
vector 51 Scenario.node[1].wlan[0].mac.dcf packetSentToPeerWithoutRetry:vector(packetBytes) ETV
attr interpolationmode none
attr source ieee80211NotRetry(packetSentToPeer)
attr title "packets sent: without retry, vector(packetBytes)"
vector 52 Scenario.node[1].wlan[0].mac.dcf.channelAccess.inProgressFrames queueingTime:vector ETV
attr interpolationmode none
attr source queueingTime(packetDequeued)
attr title "queueing times, vector"
vector 53 Scenario.node[0].wlan[0].mac packetReceivedFromLower:vector(packetBytes) ETV
attr interpolationmode none
attr title "packets received from lower layer, vector(packetBytes)"
vector 54 Scenario.node[0].wlan[0].mac.dcf packetReceivedFromPeer:vector(packetBytes) ETV
attr interpolationmode none
attr title "packets received, vector(packetBytes)"
vector 55 Scenario.node[0].wlan[0].mac.dcf packetReceivedFromPeerMulticast:vector(packetBytes) ETV
attr interpolationmode none
attr source ieee80211Multicast(packetReceivedFromPeer)
attr title "packets received: multicast, vector(packetBytes)"
vector 56 Scenario.node[0].wlan[0].mac.dcf packetReceivedFromPeerWithoutRetry:vector(packetBytes) ETV
attr interpolationmode none
attr source ieee80211NotRetry(packetReceivedFromPeer)
attr title "packets received: without retry, vector(packetBytes)"
vector 57 Scenario.node[0].wlan[0].mac packetSentToUpper:vector(packetBytes) ETV
attr interpolationmode none
attr title "packets sent to upper layer, vector(packetBytes)"
vector 58 Scenario.node[0].udp packetReceived:vector(packetBytes) ETV
attr interpolationmode none
attr source packetReceived
attr title "packets received, vector(packetBytes)"
vector 59 Scenario.node[0].udp passedUpPk:vector(count) ETV
attr interpolationmode none
attr source packetSentToUpper
attr title "packets passed up, vector(count)"
vector 60 Scenario.node[0].app[0] packetReceived:vector(packetBytes) ETV
attr interpolationmode none
attr source packetReceived
attr title "packets received, vector(packetBytes)"
vector 61 Scenario.node[0].app[0] throughput:vector ETV
attr source throughput(packetReceived)
attr title "throughput, vector"
attr unit bps
vector 62 Scenario.node[0].cache requestsReceived:vector ETV
attr interpolationmode none
attr source receive
attr title "requests received, vector"
vector 63 Scenario.node[0].cache hitRate:vector ETV
attr interpolationmode none
attr source hitRate
attr title "hit rate, vector"
vector 64 Scenario.node[0].dataServer requestsReceived:vector ETV
attr interpolationmode none
attr source receive
attr title "requests received, vector"
vector 65 Scenario.node[4].wlan[0].mac packetReceivedFromLower:vector(packetBytes) ETV
attr interpolationmode none
attr title "packets received from lower layer, vector(packetBytes)"
vector 66 Scenario.node[4].wlan[0].mac.dcf packetReceivedFromPeer:vector(packetBytes) ETV
attr interpolationmode none
attr title "packets received, vector(packetBytes)"
vector 67 Scenario.node[4].wlan[0].mac.dcf packetReceivedFromPeerMulticast:vector(packetBytes) ETV
attr interpolationmode none
attr source ieee80211Multicast(packetReceivedFromPeer)
attr title "packets received: multicast, vector(packetBytes)"
vector 68 Scenario.node[4].wlan[0].mac.dcf packetReceivedFromPeerWithoutRetry:vector(packetBytes) ETV
attr interpolationmode none
attr source ieee80211NotRetry(packetReceivedFromPeer)
attr title "packets received: without retry, vector(packetBytes)"
vector 69 Scenario.node[4].wlan[0].mac packetSentToUpper:vector(packetBytes) ETV
attr interpolationmode none
attr title "packets sent to upper layer, vector(packetBytes)"
vector 70 Scenario.node[4].udp packetReceived:vector(packetBytes) ETV
attr interpolationmode none
attr source packetReceived
attr title "packets received, vector(packetBytes)"
vector 71 Scenario.node[4].udp passedUpPk:vector(count) ETV
attr interpolationmode none
attr source packetSentToUpper
attr title "packets passed up, vector(count)"
vector 72 Scenario.node[4].app[0] packetReceived:vector(packetBytes) ETV
attr interpolationmode none
attr source packetReceived
attr title "packets received, vector(packetBytes)"
vector 73 Scenario.node[4].app[0] throughput:vector ETV
attr source throughput(packetReceived)
attr title "throughput, vector"
attr unit bps
vector 74 Scenario.node[4].cache requestsReceived:vector ETV
attr interpolationmode none
attr source receive
attr title "requests received, vector"
vector 75 Scenario.node[4].cache hitRate:vector ETV
attr interpolationmode none
attr source hitRate
attr title "hit rate, vector"
vector 76 Scenario.node[4].dataServer requestsReceived:vector ETV
attr interpolationmode none
attr source receive
attr title "requests received, vector"
vector 77 Scenario.node[0].app[0] packetSent:vector(packetBytes) ETV
attr interpolationmode none
attr source packetSent
attr title "packets sent, vector(packetBytes)"
vector 78 Scenario.node[0].udp packetSent:vector(packetBytes) ETV
attr interpolationmode none
attr source packetSent
attr title "packets sent, vector(packetBytes)"
vector 79 Scenario.node[0].lo[0].lo rcvdPkFromHl:vector(packetBytes) ETV
attr interpolationmode none
attr source packetReceivedFromUpper
attr title "packets received from higher layer, vector(packetBytes)"
vector 80 Scenario.node[0].lo[0].lo passedUpPk:vector(packetBytes) ETV
attr interpolationmode none
attr source packetSentToUpper
attr title "packets passed to higher layer, vector(packetBytes)"
vector 81 Scenario.node[0].wlan[0].mac packetReceivedFromUpper:vector(packetBytes) ETV
attr interpolationmode none
attr title "packets received from upper layer, vector(packetBytes)"
vector 82 Scenario.node[0].wlan[0].mac.dcf.channelAccess.pendingQueue packetPushed:vector(packetBytes) ETV
attr interpolationmode none
attr title "packet pushed, vector(packetBytes)"
vector 83 Scenario.node[0].wlan[0].mac.dcf.channelAccess.pendingQueue queueLength:vector ETV
attr interpolationmode sample-hold
attr source "count(packetPushed) - count(packetPopped) - count(packetRemoved) - count(packetDropped)"
attr title "queue length, vector"
vector 84 Scenario.node[0].wlan[0].mac.dcf.channelAccess.contention backoffPeriodGenerated:vector ETV
attr interpolationmode none
attr title "backoff periods, vector"
vector 85 Scenario.node[0].wlan[0].mac.dcf.channelAccess.contention backoffActive:vector ETV
attr interpolationmode sample-hold
attr source count(backoffStarted)-count(backoffStopped)
attr title "backoff active, vector"
vector 86 Scenario.node[0].wlan[0].mac.dcf.channelAccess.pendingQueue packetPopped:vector(packetBytes) ETV
attr interpolationmode none
attr title "packet popped, vector(packetBytes)"
vector 87 Scenario.node[0].wlan[0].mac.dcf.channelAccess.pendingQueue queueingTime:vector ETV
attr interpolationmode none
attr source queueingTime(packetPopped)
attr title "queueing times, vector"
attr unit s
vector 88 Scenario.node[0].wlan[0].mac.dcf.channelAccess.inProgressFrames queueLength:vector ETV
attr interpolationmode sample-hold
attr source "count(packetEnqueued) - count(packetDequeued)"
attr title "queue length, vector"
vector 89 Scenario.node[0].wlan[0].mac.dcf datarateSelected:vector ETV
attr interpolationmode none
attr title "datarates selected, vector"
vector 90 Scenario.node[0].wlan[0].mac packetSentToLower:vector(packetBytes) ETV
attr interpolationmode none
attr title "packets sent to lower layer, vector(packetBytes)"
vector 91 Scenario.node[0].wlan[0].mac.dcf frameSequenceActive:vector ETV
attr interpolationmode sample-hold
attr source count(frameSequenceStarted)-count(frameSequenceFinished)
attr title "frame sequence active, vector"
vector 92 Scenario.node[0].wlan[0].radio transmissionState:vector ETV
attr interpolationmode sample-hold
attr source transmissionStateChanged
attr title "Radio transmission state, vector"
vector 93 Scenario.node[0].wlan[0].mac.dcf packetSentToPeer:vector(packetBytes) ETV
attr interpolationmode none
attr title "packets sent, vector(packetBytes)"
vector 94 Scenario.node[0].wlan[0].mac.dcf packetSentToPeerMulticast:vector(packetBytes) ETV
attr interpolationmode none
attr source ieee80211Multicast(packetSentToPeer)
attr title "packets sent: multicast, vector(packetBytes)"
vector 95 Scenario.node[0].wlan[0].mac.dcf packetSentToPeerWithoutRetry:vector(packetBytes) ETV
attr interpolationmode none
attr source ieee80211NotRetry(packetSentToPeer)
attr title "packets sent: without retry, vector(packetBytes)"
vector 96 Scenario.node[0].wlan[0].mac.dcf.channelAccess.inProgressFrames queueingTime:vector ETV
attr interpolationmode none
attr source queueingTime(packetDequeued)
attr title "queueing times, vector"
vector 97 Scenario.node[2].wlan[0].mac packetReceivedFromLower:vector(packetBytes) ETV
attr interpolationmode none
attr title "packets received from lower layer, vector(packetBytes)"
vector 98 Scenario.node[2].wlan[0].mac.dcf packetReceivedFromPeer:vector(packetBytes) ETV
attr interpolationmode none
attr title "packets received, vector(packetBytes)"
vector 99 Scenario.node[2].wlan[0].mac.dcf packetReceivedFromPeerMulticast:vector(packetBytes) ETV
attr interpolationmode none
attr source ieee80211Multicast(packetReceivedFromPeer)
attr title "packets received: multicast, vector(packetBytes)"
vector 100 Scenario.node[2].wlan[0].mac.dcf packetReceivedFromPeerWithoutRetry:vector(packetBytes) ETV
attr interpolationmode none
attr source ieee80211NotRetry(packetReceivedFromPeer)
attr title "packets received: without retry, vector(packetBytes)"
vector 101 Scenario.node[2].wlan[0].mac packetSentToUpper:vector(packetBytes) ETV
attr interpolationmode none
attr title "packets sent to upper layer, vector(packetBytes)"
vector 102 Scenario.node[2].udp packetReceived:vector(packetBytes) ETV
attr interpolationmode none
attr source packetReceived
attr title "packets received, vector(packetBytes)"
vector 103 Scenario.node[2].udp passedUpPk:vector(count) ETV
attr interpolationmode none
attr source packetSentToUpper
attr title "packets passed up, vector(count)"
vector 104 Scenario.node[2].app[0] packetReceived:vector(packetBytes) ETV
attr interpolationmode none
attr source packetReceived
attr title "packets received, vector(packetBytes)"
vector 105 Scenario.node[2].app[0] throughput:vector ETV
attr source throughput(packetReceived)
attr title "throughput, vector"
attr unit bps
vector 106 Scenario.node[3].wlan[0].mac packetReceivedFromLower:vector(packetBytes) ETV
attr interpolationmode none
attr title "packets received from lower layer, vector(packetBytes)"
vector 107 Scenario.node[3].wlan[0].mac.dcf packetReceivedFromPeer:vector(packetBytes) ETV
attr interpolationmode none
attr title "packets received, vector(packetBytes)"
vector 108 Scenario.node[3].wlan[0].mac.dcf packetReceivedFromPeerMulticast:vector(packetBytes) ETV
attr interpolationmode none
attr source ieee80211Multicast(packetReceivedFromPeer)
attr title "packets received: multicast, vector(packetBytes)"
vector 109 Scenario.node[3].wlan[0].mac.dcf packetReceivedFromPeerWithoutRetry:vector(packetBytes) ETV
attr interpolationmode none
attr source ieee80211NotRetry(packetReceivedFromPeer)
attr title "packets received: without retry, vector(packetBytes)"
vector 110 Scenario.node[3].wlan[0].mac packetSentToUpper:vector(packetBytes) ETV
attr interpolationmode none
attr title "packets sent to upper layer, vector(packetBytes)"
vector 111 Scenario.node[3].udp packetReceived:vector(packetBytes) ETV
attr interpolationmode none
attr source packetReceived
attr title "packets received, vector(packetBytes)"
vector 112 Scenario.node[3].udp passedUpPk:vector(count) ETV
attr interpolationmode none
attr source packetSentToUpper
attr title "packets passed up, vector(count)"
vector 113 Scenario.node[1].wlan[0].mac packetReceivedFromLower:vector(packetBytes) ETV
attr interpolationmode none
attr title "packets received from lower layer, vector(packetBytes)"
vector 114 Scenario.node[1].wlan[0].mac.dcf packetReceivedFromPeer:vector(packetBytes) ETV
attr interpolationmode none
attr title "packets received, vector(packetBytes)"
vector 115 Scenario.node[1].wlan[0].mac.dcf packetReceivedFromPeerMulticast:vector(packetBytes) ETV
attr interpolationmode none
attr source ieee80211Multicast(packetReceivedFromPeer)
attr title "packets received: multicast, vector(packetBytes)"
vector 116 Scenario.node[1].wlan[0].mac.dcf packetReceivedFromPeerWithoutRetry:vector(packetBytes) ETV
attr interpolationmode none
attr source ieee80211NotRetry(packetReceivedFromPeer)
attr title "packets received: without retry, vector(packetBytes)"
vector 117 Scenario.node[1].wlan[0].mac packetSentToUpper:vector(packetBytes) ETV
attr interpolationmode none
attr title "packets sent to upper layer, vector(packetBytes)"
vector 118 Scenario.node[1].app[0] RequestReceiveTime:vector ETV
attr interpolationmode none
attr source receiveTime
attr title "request time, vector"
vector 119 Scenario.node[2].cache requestsReceived:vector ETV
attr interpolationmode none
attr source receive
attr title "requests received, vector"
vector 120 Scenario.node[2].cache hitRate:vector ETV
attr interpolationmode none
attr source hitRate
attr title "hit rate, vector"
vector 121 Scenario.node[2].dataServer requestsReceived:vector ETV
attr interpolationmode none
attr source receive
attr title "requests received, vector"
vector 122 Scenario.node[2].app[0] RequestReceiveTime:vector ETV
attr interpolationmode none
attr source receiveTime
attr title "request time, vector"
vector 123 Scenario.node[0].app[0] RequestReceiveTime:vector ETV
attr interpolationmode none
attr source receiveTime
attr title "request time, vector"
vector 124 Scenario.node[4].app[0] RequestReceiveTime:vector ETV
attr interpolationmode none
attr source receiveTime
attr title "request time, vector"
vector 125 Scenario.node[2].cache requestsAnswered:vector ETV
attr interpolationmode none
attr source answer
attr title "requests answered, vector"
vector 126 Scenario.node[3].cache requestsAnswered:vector ETV
attr interpolationmode none
attr source answer
attr title "requests answered, vector"
vector 127 Scenario.node[4].cache requestsAnswered:vector ETV
attr interpolationmode none
attr source answer
attr title "requests answered, vector"
vector 128 Scenario.node[4].app[0] packetSent:vector(packetBytes) ETV
attr interpolationmode none
attr source packetSent
attr title "packets sent, vector(packetBytes)"
vector 129 Scenario.node[4].udp packetSent:vector(packetBytes) ETV
attr interpolationmode none
attr source packetSent
attr title "packets sent, vector(packetBytes)"
vector 130 Scenario.node[4].lo[0].lo rcvdPkFromHl:vector(packetBytes) ETV
attr interpolationmode none
attr source packetReceivedFromUpper
attr title "packets received from higher layer, vector(packetBytes)"
vector 131 Scenario.node[4].lo[0].lo passedUpPk:vector(packetBytes) ETV
attr interpolationmode none
attr source packetSentToUpper
attr title "packets passed to higher layer, vector(packetBytes)"
vector 132 Scenario.node[4].wlan[0].mac packetReceivedFromUpper:vector(packetBytes) ETV
attr interpolationmode none
attr title "packets received from upper layer, vector(packetBytes)"
vector 133 Scenario.node[4].wlan[0].mac.dcf.channelAccess.pendingQueue packetPushed:vector(packetBytes) ETV
attr interpolationmode none
attr title "packet pushed, vector(packetBytes)"
vector 134 Scenario.node[4].wlan[0].mac.dcf.channelAccess.pendingQueue queueLength:vector ETV
attr interpolationmode sample-hold
attr source "count(packetPushed) - count(packetPopped) - count(packetRemoved) - count(packetDropped)"
attr title "queue length, vector"
vector 135 Scenario.node[4].wlan[0].mac.dcf.channelAccess.contention backoffPeriodGenerated:vector ETV
attr interpolationmode none
attr title "backoff periods, vector"
vector 136 Scenario.node[4].wlan[0].mac.dcf.channelAccess.contention backoffActive:vector ETV
attr interpolationmode sample-hold
attr source count(backoffStarted)-count(backoffStopped)
attr title "backoff active, vector"
vector 137 Scenario.node[4].wlan[0].mac.dcf.channelAccess.pendingQueue packetPopped:vector(packetBytes) ETV
attr interpolationmode none
attr title "packet popped, vector(packetBytes)"
vector 138 Scenario.node[4].wlan[0].mac.dcf.channelAccess.pendingQueue queueingTime:vector ETV
attr interpolationmode none
attr source queueingTime(packetPopped)
attr title "queueing times, vector"
attr unit s
vector 139 Scenario.node[4].wlan[0].mac.dcf.channelAccess.inProgressFrames queueLength:vector ETV
attr interpolationmode sample-hold
attr source "count(packetEnqueued) - count(packetDequeued)"
attr title "queue length, vector"
vector 140 Scenario.node[4].wlan[0].mac.dcf datarateSelected:vector ETV
attr interpolationmode none
attr title "datarates selected, vector"
vector 141 Scenario.node[4].wlan[0].mac packetSentToLower:vector(packetBytes) ETV
attr interpolationmode none
attr title "packets sent to lower layer, vector(packetBytes)"
vector 142 Scenario.node[4].wlan[0].mac.dcf frameSequenceActive:vector ETV
attr interpolationmode sample-hold
attr source count(frameSequenceStarted)-count(frameSequenceFinished)
attr title "frame sequence active, vector"
vector 143 Scenario.node[4].wlan[0].radio transmissionState:vector ETV
attr interpolationmode sample-hold
attr source transmissionStateChanged
attr title "Radio transmission state, vector"
vector 144 Scenario.node[4].wlan[0].mac.dcf packetSentToPeer:vector(packetBytes) ETV
attr interpolationmode none
attr title "packets sent, vector(packetBytes)"
vector 145 Scenario.node[4].wlan[0].mac.dcf packetSentToPeerMulticast:vector(packetBytes) ETV
attr interpolationmode none
attr source ieee80211Multicast(packetSentToPeer)
attr title "packets sent: multicast, vector(packetBytes)"
vector 146 Scenario.node[4].wlan[0].mac.dcf packetSentToPeerWithoutRetry:vector(packetBytes) ETV
attr interpolationmode none
attr source ieee80211NotRetry(packetSentToPeer)
attr title "packets sent: without retry, vector(packetBytes)"
vector 147 Scenario.node[4].wlan[0].mac.dcf.channelAccess.inProgressFrames queueingTime:vector ETV
attr interpolationmode none
attr source queueingTime(packetDequeued)
attr title "queueing times, vector"
vector 148 Scenario.node[1].cache requestsAnswered:vector ETV
attr interpolationmode none
attr source answer
attr title "requests answered, vector"
vector 149 Scenario.node[3].app[0] packetSent:vector(packetBytes) ETV
attr interpolationmode none
attr source packetSent
attr title "packets sent, vector(packetBytes)"
vector 150 Scenario.node[3].udp packetSent:vector(packetBytes) ETV
attr interpolationmode none
attr source packetSent
attr title "packets sent, vector(packetBytes)"
vector 151 Scenario.node[3].lo[0].lo rcvdPkFromHl:vector(packetBytes) ETV
attr interpolationmode none
attr source packetReceivedFromUpper
attr title "packets received from higher layer, vector(packetBytes)"
vector 152 Scenario.node[3].lo[0].lo passedUpPk:vector(packetBytes) ETV
attr interpolationmode none
attr source packetSentToUpper
attr title "packets passed to higher layer, vector(packetBytes)"
vector 153 Scenario.node[3].wlan[0].mac packetReceivedFromUpper:vector(packetBytes) ETV
attr interpolationmode none
attr title "packets received from upper layer, vector(packetBytes)"
vector 154 Scenario.node[3].wlan[0].mac.dcf.channelAccess.pendingQueue packetPushed:vector(packetBytes) ETV
attr interpolationmode none
attr title "packet pushed, vector(packetBytes)"
vector 155 Scenario.node[3].wlan[0].mac.dcf.channelAccess.pendingQueue queueLength:vector ETV
attr interpolationmode sample-hold
attr source "count(packetPushed) - count(packetPopped) - count(packetRemoved) - count(packetDropped)"
attr title "queue length, vector"
vector 156 Scenario.node[3].wlan[0].mac.dcf.channelAccess.contention backoffPeriodGenerated:vector ETV
attr interpolationmode none
attr title "backoff periods, vector"
vector 157 Scenario.node[3].wlan[0].mac.dcf.channelAccess.contention backoffActive:vector ETV
attr interpolationmode sample-hold
attr source count(backoffStarted)-count(backoffStopped)
attr title "backoff active, vector"
vector 158 Scenario.node[3].wlan[0].mac.dcf.channelAccess.pendingQueue packetPopped:vector(packetBytes) ETV
attr interpolationmode none
attr title "packet popped, vector(packetBytes)"
vector 159 Scenario.node[3].wlan[0].mac.dcf.channelAccess.pendingQueue queueingTime:vector ETV
attr interpolationmode none
attr source queueingTime(packetPopped)
attr title "queueing times, vector"
attr unit s
vector 160 Scenario.node[3].wlan[0].mac.dcf.channelAccess.inProgressFrames queueLength:vector ETV
attr interpolationmode sample-hold
attr source "count(packetEnqueued) - count(packetDequeued)"
attr title "queue length, vector"
vector 161 Scenario.node[3].wlan[0].mac.dcf datarateSelected:vector ETV
attr interpolationmode none
attr title "datarates selected, vector"
vector 162 Scenario.node[3].wlan[0].mac packetSentToLower:vector(packetBytes) ETV
attr interpolationmode none
attr title "packets sent to lower layer, vector(packetBytes)"
vector 163 Scenario.node[3].wlan[0].mac.dcf frameSequenceActive:vector ETV
attr interpolationmode sample-hold
attr source count(frameSequenceStarted)-count(frameSequenceFinished)
attr title "frame sequence active, vector"
vector 164 Scenario.node[3].wlan[0].radio transmissionState:vector ETV
attr interpolationmode sample-hold
attr source transmissionStateChanged
attr title "Radio transmission state, vector"
vector 165 Scenario.node[3].wlan[0].mac.dcf packetSentToPeer:vector(packetBytes) ETV
attr interpolationmode none
attr title "packets sent, vector(packetBytes)"
vector 166 Scenario.node[3].wlan[0].mac.dcf packetSentToPeerMulticast:vector(packetBytes) ETV
attr interpolationmode none
attr source ieee80211Multicast(packetSentToPeer)
attr title "packets sent: multicast, vector(packetBytes)"
vector 167 Scenario.node[3].wlan[0].mac.dcf packetSentToPeerWithoutRetry:vector(packetBytes) ETV
attr interpolationmode none
attr source ieee80211NotRetry(packetSentToPeer)
attr title "packets sent: without retry, vector(packetBytes)"
vector 168 Scenario.node[3].wlan[0].mac.dcf.channelAccess.inProgressFrames queueingTime:vector ETV
attr interpolationmode none
attr source queueingTime(packetDequeued)
attr title "queueing times, vector"
vector 169 Scenario.node[0].cache requestsAnswered:vector ETV
attr interpolationmode none
attr source answer
attr title "requests answered, vector"
vector 170 Scenario.node[2].app[0] packetSent:vector(packetBytes) ETV
attr interpolationmode none
attr source packetSent
attr title "packets sent, vector(packetBytes)"
vector 171 Scenario.node[2].udp packetSent:vector(packetBytes) ETV
attr interpolationmode none
attr source packetSent
attr title "packets sent, vector(packetBytes)"
vector 172 Scenario.node[2].lo[0].lo rcvdPkFromHl:vector(packetBytes) ETV
attr interpolationmode none
attr source packetReceivedFromUpper
attr title "packets received from higher layer, vector(packetBytes)"
vector 173 Scenario.node[2].lo[0].lo passedUpPk:vector(packetBytes) ETV
attr interpolationmode none
attr source packetSentToUpper
attr title "packets passed to higher layer, vector(packetBytes)"
vector 174 Scenario.node[2].wlan[0].mac packetReceivedFromUpper:vector(packetBytes) ETV
attr interpolationmode none
attr title "packets received from upper layer, vector(packetBytes)"
vector 175 Scenario.node[2].wlan[0].mac.dcf.channelAccess.pendingQueue packetPushed:vector(packetBytes) ETV
attr interpolationmode none
attr title "packet pushed, vector(packetBytes)"
vector 176 Scenario.node[2].wlan[0].mac.dcf.channelAccess.pendingQueue queueLength:vector ETV
attr interpolationmode sample-hold
attr source "count(packetPushed) - count(packetPopped) - count(packetRemoved) - count(packetDropped)"
attr title "queue length, vector"
vector 177 Scenario.node[2].wlan[0].mac.dcf.channelAccess.contention backoffPeriodGenerated:vector ETV
attr interpolationmode none
attr title "backoff periods, vector"
vector 178 Scenario.node[2].wlan[0].mac.dcf.channelAccess.contention backoffActive:vector ETV
attr interpolationmode sample-hold
attr source count(backoffStarted)-count(backoffStopped)
attr title "backoff active, vector"
vector 179 Scenario.node[2].wlan[0].mac.dcf.channelAccess.pendingQueue packetPopped:vector(packetBytes) ETV
attr interpolationmode none
attr title "packet popped, vector(packetBytes)"
vector 180 Scenario.node[2].wlan[0].mac.dcf.channelAccess.pendingQueue queueingTime:vector ETV
attr interpolationmode none
attr source queueingTime(packetPopped)
attr title "queueing times, vector"
attr unit s
vector 181 Scenario.node[2].wlan[0].mac.dcf.channelAccess.inProgressFrames queueLength:vector ETV
attr interpolationmode sample-hold
attr source "count(packetEnqueued) - count(packetDequeued)"
attr title "queue length, vector"
vector 182 Scenario.node[2].wlan[0].mac.dcf datarateSelected:vector ETV
attr interpolationmode none
attr title "datarates selected, vector"
vector 183 Scenario.node[2].wlan[0].mac packetSentToLower:vector(packetBytes) ETV
attr interpolationmode none
attr title "packets sent to lower layer, vector(packetBytes)"
vector 184 Scenario.node[2].wlan[0].mac.dcf frameSequenceActive:vector ETV
attr interpolationmode sample-hold
attr source count(frameSequenceStarted)-count(frameSequenceFinished)
attr title "frame sequence active, vector"
vector 185 Scenario.node[2].wlan[0].radio transmissionState:vector ETV
attr interpolationmode sample-hold
attr source transmissionStateChanged
attr title "Radio transmission state, vector"
vector 186 Scenario.node[2].wlan[0].mac.dcf packetSentToPeer:vector(packetBytes) ETV
attr interpolationmode none
attr title "packets sent, vector(packetBytes)"
vector 187 Scenario.node[2].wlan[0].mac.dcf packetSentToPeerMulticast:vector(packetBytes) ETV
attr interpolationmode none
attr source ieee80211Multicast(packetSentToPeer)
attr title "packets sent: multicast, vector(packetBytes)"
vector 188 Scenario.node[2].wlan[0].mac.dcf packetSentToPeerWithoutRetry:vector(packetBytes) ETV
attr interpolationmode none
attr source ieee80211NotRetry(packetSentToPeer)
attr title "packets sent: without retry, vector(packetBytes)"
vector 189 Scenario.node[2].wlan[0].mac.dcf.channelAccess.inProgressFrames queueingTime:vector ETV
attr interpolationmode none
attr source queueingTime(packetDequeued)
attr title "queueing times, vector"
vector 190 Scenario.node[2].wlan[0].mac packetDrop:vector(packetBytes) ETV
attr interpolationmode none
attr source packetDropped
attr title "packet drops, vector(packetBytes)"
vector 191 Scenario.node[2].wlan[0].mac packetDropIncorrectlyReceived:vector(packetBytes) ETV
attr interpolationmode none
attr source packetDropReasonIsIncorrectlyReceived(packetDropped)
attr title "packet drops: incorrectly received, vector(packetBytes)"
vector 192 Scenario.node[0].wlan[0].mac packetDrop:vector(packetBytes) ETV
attr interpolationmode none
attr source packetDropped
attr title "packet drops, vector(packetBytes)"
vector 193 Scenario.node[0].wlan[0].mac packetDropIncorrectlyReceived:vector(packetBytes) ETV
attr interpolationmode none
attr source packetDropReasonIsIncorrectlyReceived(packetDropped)
attr title "packet drops: incorrectly received, vector(packetBytes)"
79	124	6.282424752908	540
79	286	16.196	540
79	534	20.821424075055	540
79	697	29.817424225418	540
79	1225	40.27	540
79	1768	64.216	540
80	124	6.282424752908	540
80	286	16.196	540
80	534	20.821424075055	540
80	697	29.817424225418	540
80	1225	40.27	540
80	1768	64.216	540
53	106	6.203424752908	570
53	330	16.197036256356	570
53	482	20.768424075055	570
53	690	29.817424225418	570
53	776	29.818454273742	570
53	811	29.887848225436	570
53	905	30.207424544353	570
53	974	30.24595889223	570
53	1077	35.230424566986	570
53	1171	40.232424431547	570
53	1199	40.266848569244	570
53	1295	40.271088407646	570
53	1343	40.271584000791	570
53	1400	42.197424244532	570
53	1596	56.162424216298	570
90	131	6.282424752908	570
90	293	16.196	570
90	541	20.821424075055	570
90	725	29.817495225418	570
90	1232	40.27	570
90	1775	64.216	570
81	127	6.282424752908	542
81	289	16.196	542
81	537	20.821424075055	542
81	700	29.817424225418	542
81	1228	40.27	542
81	1771	64.216	542
57	106	6.203424752908	542
57	330	16.197036256356	542
57	482	20.768424075055	542
57	690	29.817424225418	542
57	776	29.818454273742	542
57	811	29.887848225436	542
57	905	30.207424544353	542
57	974	30.24595889223	542
57	1077	35.230424566986	542
57	1171	40.232424431547	542
57	1199	40.266848569244	542
57	1295	40.271088407646	542
57	1400	42.197424244532	542
57	1596	56.162424216298	542
193	1343	40.271584000791	570
192	1343	40.271584000791	570
56	106	6.203424752908	570
56	330	16.197036256356	570
56	482	20.768424075055	570
56	690	29.817424225418	570
56	776	29.818454273742	570
56	811	29.887848225436	570
56	905	30.207424544353	570
56	974	30.24595889223	570
56	1077	35.230424566986	570
56	1171	40.232424431547	570
56	1199	40.266848569244	570
56	1295	40.271088407646	570
56	1400	42.197424244532	570
56	1596	56.162424216298	570
55	106	6.203424752908	570
55	330	16.197036256356	570
55	482	20.768424075055	570
55	690	29.817424225418	570
55	776	29.818454273742	570
55	811	29.887848225436	570
55	905	30.207424544353	570
55	974	30.24595889223	570
55	1077	35.230424566986	570
55	1171	40.232424431547	570
55	1199	40.266848569244	570
55	1295	40.271088407646	570
55	1400	42.197424244532	570
55	1596	56.162424216298	570
54	106	6.203424752908	570
54	330	16.197036256356	570
54	482	20.768424075055	570
54	690	29.817424225418	570
54	776	29.818454273742	570
54	811	29.887848225436	570
54	905	30.207424544353	570
54	974	30.24595889223	570
54	1077	35.230424566986	570
54	1171	40.232424431547	570
54	1199	40.266848569244	570
54	1295	40.271088407646	570
54	1400	42.197424244532	570
54	1596	56.162424216298	570
95	138	6.282848752908	570
95	300	16.196424	570
95	548	20.821848075055	570
95	732	29.817919225418	570
95	1239	40.270424	570
95	1782	64.216424	570
94	138	6.282848752908	570
94	300	16.196424	570
94	548	20.821848075055	570
94	732	29.817919225418	570
94	1239	40.270424	570
94	1782	64.216424	570
93	138	6.282848752908	570
93	300	16.196424	570
93	548	20.821848075055	570
93	732	29.817919225418	570
93	1239	40.270424	570
93	1782	64.216424	570
91	131	6.282424752908	1
91	138	6.282848752908	0
91	293	16.196	1
91	300	16.196424	0
91	541	20.821424075055	1
91	548	20.821848075055	0
91	725	29.817495225418	1
91	732	29.817919225418	0
91	1232	40.27	1
91	1239	40.270424	0
91	1775	64.216	1
91	1782	64.216424	0
89	131	6.282424752908	12000000
89	293	16.196	12000000
89	541	20.821424075055	12000000
89	725	29.817495225418	12000000
89	1232	40.27	12000000
89	1775	64.216	12000000
87	131	6.282424752908	0
87	293	16.196	0
87	541	20.821424075055	0
87	725	29.817495225418	7.1e-005
87	1232	40.27	0
87	1775	64.216	0
86	131	6.282424752908	570
86	293	16.196	570
86	541	20.821424075055	570
86	725	29.817495225418	570
86	1232	40.27	570
86	1775	64.216	570
82	127	6.282424752908	570
82	289	16.196	570
82	537	20.821424075055	570
82	700	29.817424225418	570
82	1228	40.27	570
82	1771	64.216	570
83	127	6.282424752908	1
83	131	6.282424752908	0
83	289	16.196	1
83	293	16.196	0
83	537	20.821424075055	1
83	541	20.821424075055	0
83	700	29.817424225418	1
83	725	29.817495225418	0
83	1228	40.27	1
83	1232	40.27	0
83	1771	64.216	1
83	1775	64.216	0
96	138	6.282848752908	0.000424
96	300	16.196424	0.000424
96	548	20.821848075055	0.000424
96	732	29.817919225418	0.000424
96	1239	40.270424	0.000424
96	1782	64.216424	0.000424
88	131	6.282424752908	1
88	138	6.282848752908	0
88	293	16.196	1
88	300	16.196424	0
88	541	20.821424075055	1
88	548	20.821848075055	0
88	725	29.817495225418	1
88	732	29.817919225418	0
88	1232	40.27	1
88	1239	40.270424	0
88	1775	64.216	1
88	1782	64.216424	0
85	127	6.282424752908	1
85	130	6.282424752908	0
85	289	16.196	1
85	292	16.196	0
85	537	20.821424075055	1
85	540	20.821424075055	0
85	700	29.817424225418	1
85	724	29.817495225418	0
85	1228	40.27	1
85	1231	40.27	0
85	1771	64.216	1
85	1774	64.216	0
84	127	6.282424752908	8
84	289	16.196	12
84	537	20.821424075055	14
84	700	29.817424225418	1
84	1228	40.27	5
84	1771	64.216	1
3	2	0.1	15
92	132	6.282424752908	1
92	133	6.282424752908	2
92	138	6.282848752908	1
92	139	6.282848752908	0
92	294	16.196	1
92	295	16.196	2
92	300	16.196424	1
92	301	16.196424	0
92	542	20.821424075055	1
92	543	20.821424075055	2
92	548	20.821848075055	1
92	549	20.821848075055	0
92	726	29.817495225418	1
92	727	29.817495225418	2
92	732	29.817919225418	1
92	733	29.817919225418	0
92	1233	40.27	1
92	1234	40.27	2
92	1239	40.270424	1
92	1240	40.270424	0
92	1776	64.216	1
92	1777	64.216	2
92	1782	64.216424	1
92	1783	64.216424	0
2	2	0.1	1
2	99	6.203000752908	3
2	105	6.203424752908	1
2	132	6.282424752908	0
2	139	6.282848752908	1
2	294	16.196	0
2	301	16.196424	1
2	323	16.196612256356	3
2	329	16.197036256356	1
2	475	20.768000075055	3
2	481	20.768424075055	1
2	542	20.821424075055	0
2	549	20.821848075055	1
2	677	29.817000225418	3
2	689	29.817424225418	1
2	726	29.817495225418	0
2	733	29.817919225418	1
2	759	29.818030273742	3
2	775	29.818454273742	1
2	799	29.887424225436	3
2	810	29.887848225436	1
2	886	30.207000544353	3
2	904	30.207424544353	1
2	962	30.24553489223	3
2	973	30.24595889223	1
2	1064	35.230000566986	3
2	1076	35.230424566986	1
2	1158	40.232000431547	3
2	1170	40.232424431547	1
2	1192	40.266424569244	3
2	1198	40.266848569244	1
2	1233	40.27	0
2	1240	40.270424	1
2	1288	40.270664407646	3
2	1294	40.271088407646	1
2	1329	40.271160000791	3
2	1342	40.271584000791	2
2	1344	40.271584035162	1
2	1393	42.197000244532	3
2	1399	42.197424244532	1
2	1589	56.162000216298	3
2	1595	56.162424216298	1
2	1776	64.216	0
2	1783	64.216424	1
0	2	0.1	0
0	2	0.1	0
0	2	0.1	2
0	132	6.282424752908	3
0	139	6.282848752908	2
0	294	16.196	3
0	301	16.196424	2
0	542	20.821424075055	3
0	549	20.821848075055	2
0	726	29.817495225418	3
0	733	29.817919225418	2
0	1233	40.27	3
0	1240	40.270424	2
0	1776	64.216	3
0	1783	64.216424	2
1	2	0.1	3
58	109	6.203424752908	520
58	128	6.282424752908	520
58	290	16.196	520
58	333	16.197036256356	520
58	485	20.768424075055	520
58	538	20.821424075055	520
58	693	29.817424225418	520
58	701	29.817424225418	520
58	779	29.818454273742	520
58	814	29.887848225436	520
58	908	30.207424544353	520
58	977	30.24595889223	520
58	1080	35.230424566986	520
58	1174	40.232424431547	520
58	1202	40.266848569244	520
58	1229	40.27	520
58	1298	40.271088407646	520
58	1403	42.197424244532	520
58	1599	56.162424216298	520
58	1772	64.216	520
78	122	6.282424752908	520
78	284	16.196	520
78	532	20.821424075055	520
78	695	29.817424225418	520
78	1223	40.27	520
78	1766	64.216	520
59	109	6.203424752908	1
59	128	6.282424752908	2
59	290	16.196	3
59	333	16.197036256356	4
59	485	20.768424075055	5
59	538	20.821424075055	6
59	693	29.817424225418	7
59	701	29.817424225418	8
59	779	29.818454273742	9
59	814	29.887848225436	10
59	908	30.207424544353	11
59	977	30.24595889223	12
59	1080	35.230424566986	13
59	1174	40.232424431547	14
59	1202	40.266848569244	15
59	1229	40.27	16
59	1298	40.271088407646	17
59	1403	42.197424244532	18
59	1599	56.162424216298	19
59	1772	64.216	20
123	190	8.213	0
123	334	16.197036256356	0
123	600	24.202	0
123	702	29.817424225418	21
123	978	30.24595889223	14
123	1013	32.1	8
123	1203	40.266848569244	0
123	1299	40.271088407646	0
123	1486	48.1	0
123	1572	56.1	0
61	110	0.1	0
61	110	0.2	0
61	110	0.3	0
61	110	0.4	0
61	110	0.5	0
61	110	0.6	0
61	110	0.7	0
61	110	0.8	0
61	110	0.9	0
61	110	1	0
61	110	1.1	0
61	110	1.2	0
61	110	1.3	0
61	110	1.4	0
61	110	1.5	0
61	110	1.6	0
61	110	1.7	0
61	110	1.8	0
61	110	1.9	0
61	110	2	0
61	110	2.1	0
61	110	2.2	0
61	110	2.3	0
61	110	2.4	0
61	110	2.5	0
61	110	2.6	0
61	110	2.7	0
61	110	2.8	0
61	110	2.9	0
61	110	3	0
61	110	3.1	0
61	110	3.2	0
61	110	3.3	0
61	110	3.4	0
61	110	3.5	0
61	110	3.6	0
61	110	3.7	0
61	110	3.8	0
61	110	3.9	0
61	110	4	0
61	110	4.1	0
61	110	4.2	0
61	110	4.3	0
61	110	4.4	0
61	110	4.5	0
61	110	4.6	0
61	110	4.7	0
61	110	4.8	0
61	110	4.9	0
61	110	5	0
61	110	5.1	0
61	110	5.2	0
61	110	5.3	0
61	110	5.4	0
61	110	5.5	0
61	110	5.6	0
61	110	5.7	0
61	110	5.8	0
61	110	5.9	0
61	110	6	0
61	110	6.1	0
61	110	6.2	0
61	190	6.3	122880
61	190	6.4	0
61	190	6.5	0
61	190	6.6	0
61	190	6.7	0
61	190	6.8	0
61	190	6.9	0
61	190	7	0
61	190	7.1	0
61	190	7.2	0
61	190	7.3	0
61	190	7.4	0
61	190	7.5	0
61	190	7.6	0
61	190	7.7	0
61	190	7.8	0
61	190	7.9	0
61	190	8	0
61	190	8.1	0
61	190	8.2	0
61	283	8.3	40960
61	283	8.4	0
61	283	8.5	0
61	283	8.6	0
61	283	8.7	0
61	283	8.8	0
61	283	8.9	0
61	283	9	0
61	283	9.1	0
61	283	9.2	0
61	283	9.3	0
61	283	9.4	0
61	283	9.5	0
61	283	9.6	0
61	283	9.7	0
61	283	9.8	0
61	283	9.9	0
61	283	10	0
61	283	10.1	0
61	283	10.2	0
61	283	10.3	0
61	283	10.4	0
61	283	10.5	0
61	283	10.6	0
61	283	10.7	0
61	283	10.8	0
61	283	10.9	0
61	283	11	0
61	283	11.1	0
61	283	11.2	0
61	283	11.3	0
61	283	11.4	0
61	283	11.5	0
61	283	11.6	0
61	283	11.7	0
61	283	11.8	0
61	283	11.9	0
61	283	12	0
61	283	12.1	0
61	283	12.2	0
61	283	12.3	0
61	283	12.4	0
61	283	12.5	0
61	283	12.6	0
61	283	12.7	0
61	283	12.8	0
61	283	12.9	0
61	283	13	0
61	283	13.1	0
61	283	13.2	0
61	283	13.3	0
61	283	13.4	0
61	283	13.5	0
61	283	13.6	0
61	283	13.7	0
61	283	13.8	0
61	283	13.9	0
61	283	14	0
61	283	14.1	0
61	283	14.2	0
61	283	14.3	0
61	283	14.4	0
61	283	14.5	0
61	283	14.6	0
61	283	14.7	0
61	283	14.8	0
61	283	14.9	0
61	283	15	0
61	283	15.1	0
61	283	15.2	0
61	283	15.3	0
61	283	15.4	0
61	283	15.5	0
61	283	15.6	0
61	283	15.7	0
61	283	15.8	0
61	283	15.9	0
61	283	16	0
61	283	16.1	0
61	486	16.2	122880
61	486	16.3	0
61	486	16.4	0
61	486	16.5	0
61	486	16.6	0
61	486	16.7	0
61	486	16.8	0
61	486	16.9	0
61	486	17	0
61	486	17.1	0
61	486	17.2	0
61	486	17.3	0
61	486	17.4	0
61	486	17.5	0
61	486	17.6	0
61	486	17.7	0
61	486	17.8	0
61	486	17.9	0
61	486	18	0
61	486	18.1	0
61	486	18.2	0
61	486	18.3	0
61	486	18.4	0
61	486	18.5	0
61	486	18.6	0
61	486	18.7	0
61	486	18.8	0
61	486	18.9	0
61	486	19	0
61	486	19.1	0
61	486	19.2	0
61	486	19.3	0
61	486	19.4	0
61	486	19.5	0
61	486	19.6	0
61	486	19.7	0
61	486	19.8	0
61	486	19.9	0
61	486	20	0
61	486	20.1	0
61	486	20.2	0
61	486	20.3	0
61	486	20.4	0
61	486	20.5	0
61	486	20.6	0
61	486	20.7	0
61	531	20.8	40960
61	600	20.9	81920
61	600	21	0
61	600	21.1	0
61	600	21.2	0
61	600	21.3	0
61	600	21.4	0
61	600	21.5	0
61	600	21.6	0
61	600	21.7	0
61	600	21.8	0
61	600	21.9	0
61	600	22	0
61	600	22.1	0
61	600	22.2	0
61	600	22.3	0
61	600	22.4	0
61	600	22.5	0
61	600	22.6	0
61	600	22.7	0
61	600	22.8	0
61	600	22.9	0
61	600	23	0
61	600	23.1	0
61	600	23.2	0
61	600	23.3	0
61	600	23.4	0
61	600	23.5	0
61	600	23.6	0
61	600	23.7	0
61	600	23.8	0
61	600	23.9	0
61	600	24	0
61	600	24.1	0
61	600	24.2	0
61	694	24.3	40960
61	694	24.4	0
61	694	24.5	0
61	694	24.6	0
61	694	24.7	0
61	694	24.8	0
61	694	24.9	0
61	694	25	0
61	694	25.1	0
61	694	25.2	0
61	694	25.3	0
61	694	25.4	0
61	694	25.5	0
61	694	25.6	0
61	694	25.7	0
61	694	25.8	0
61	694	25.9	0
61	694	26	0
61	694	26.1	0
61	694	26.2	0
61	694	26.3	0
61	694	26.4	0
61	694	26.5	0
61	694	26.6	0
61	694	26.7	0
61	694	26.8	0
61	694	26.9	0
61	694	27	0
61	694	27.1	0
61	694	27.2	0
61	694	27.3	0
61	694	27.4	0
61	694	27.5	0
61	694	27.6	0
61	694	27.7	0
61	694	27.8	0
61	694	27.9	0
61	694	28	0
61	694	28.1	0
61	694	28.2	0
61	694	28.3	0
61	694	28.4	0
61	694	28.5	0
61	694	28.6	0
61	694	28.7	0
61	694	28.8	0
61	694	28.9	0
61	694	29	0
61	694	29.1	0
61	694	29.2	0
61	694	29.3	0
61	694	29.4	0
61	694	29.5	0
61	694	29.6	0
61	694	29.7	0
61	694	29.8	0
61	909	29.9	163840
61	909	30	0
61	909	30.1	0
61	909	30.2	0
61	1081	30.3	122880
61	1081	30.4	0
61	1081	30.5	0
61	1081	30.6	0
61	1081	30.7	0
61	1081	30.8	0
61	1081	30.9	0
61	1081	31	0
61	1081	31.1	0
61	1081	31.2	0
61	1081	31.3	0
61	1081	31.4	0
61	1081	31.5	0
61	1081	31.6	0
61	1081	31.7	0
61	1081	31.8	0
61	1081	31.9	0
61	1081	32	0
61	1081	32.1	0
61	1081	32.2	0
61	1081	32.3	0
61	1081	32.4	0
61	1081	32.5	0
61	1081	32.6	0
61	1081	32.7	0
61	1081	32.8	0
61	1081	32.9	0
61	1081	33	0
61	1081	33.1	0
61	1081	33.2	0
61	1081	33.3	0
61	1081	33.4	0
61	1081	33.5	0
61	1081	33.6	0
61	1081	33.7	0
61	1081	33.8	0
61	1081	33.9	0
61	1081	34	0
61	1081	34.1	0
61	1081	34.2	0
61	1081	34.3	0
61	1081	34.4	0
61	1081	34.5	0
61	1081	34.6	0
61	1081	34.7	0
61	1081	34.8	0
61	1081	34.9	0
61	1081	35	0
61	1081	35.1	0
61	1081	35.2	0
61	1175	35.3	81920
61	1175	35.4	0
61	1175	35.5	0
61	1175	35.6	0
61	1175	35.7	0
61	1175	35.8	0
61	1175	35.9	0
61	1175	36	0
61	1175	36.1	0
61	1175	36.2	0
61	1175	36.3	0
61	1175	36.4	0
61	1175	36.5	0
61	1175	36.6	0
61	1175	36.7	0
61	1175	36.8	0
61	1175	36.9	0
61	1175	37	0
61	1175	37.1	0
61	1175	37.2	0
61	1175	37.3	0
61	1175	37.4	0
61	1175	37.5	0
61	1175	37.6	0
61	1175	37.7	0
61	1175	37.8	0
61	1175	37.9	0
61	1175	38	0
61	1175	38.1	0
61	1175	38.2	0
61	1175	38.3	0
61	1175	38.4	0
61	1175	38.5	0
61	1175	38.6	0
61	1175	38.7	0
61	1175	38.8	0
61	1175	38.9	0
61	1175	39	0
61	1175	39.1	0
61	1175	39.2	0
61	1175	39.3	0
61	1175	39.4	0
61	1175	39.5	0
61	1175	39.6	0
61	1175	39.7	0
61	1175	39.8	0
61	1175	39.9	0
61	1175	40	0
61	1175	40.1	0
61	1175	40.2	0
61	1358	40.3	204800
61	1404	40.4	40960
61	1404	40.5	0
61	1404	40.6	0
61	1404	40.7	0
61	1404	40.8	0
61	1404	40.9	0
61	1404	41	0
61	1404	41.1	0
61	1404	41.2	0
61	1404	41.3	0
61	1404	41.4	0
61	1404	41.5	0
61	1404	41.6	0
61	1404	41.7	0
61	1404	41.8	0
61	1404	41.9	0
61	1404	42	0
61	1404	42.1	0
61	1425	42.2	40960
61	1600	42.3	40960
61	1600	42.4	0
61	1600	42.5	0
61	1600	42.6	0
61	1600	42.7	0
61	1600	42.8	0
61	1600	42.9	0
61	1600	43	0
61	1600	43.1	0
61	1600	43.2	0
61	1600	43.3	0
61	1600	43.4	0
61	1600	43.5	0
61	1600	43.6	0
61	1600	43.7	0
61	1600	43.8	0
61	1600	43.9	0
61	1600	44	0
61	1600	44.1	0
61	1600	44.2	0
61	1600	44.3	0
61	1600	44.4	0
61	1600	44.5	0
61	1600	44.6	0
61	1600	44.7	0
61	1600	44.8	0
61	1600	44.9	0
61	1600	45	0
61	1600	45.1	0
61	1600	45.2	0
61	1600	45.3	0
61	1600	45.4	0
61	1600	45.5	0
61	1600	45.6	0
61	1600	45.7	0
61	1600	45.8	0
61	1600	45.9	0
61	1600	46	0
61	1600	46.1	0
61	1600	46.2	0
61	1600	46.3	0
61	1600	46.4	0
61	1600	46.5	0
61	1600	46.6	0
61	1600	46.7	0
61	1600	46.8	0
61	1600	46.9	0
61	1600	47	0
61	1600	47.1	0
61	1600	47.2	0
61	1600	47.3	0
61	1600	47.4	0
61	1600	47.5	0
61	1600	47.6	0
61	1600	47.7	0
61	1600	47.8	0
61	1600	47.9	0
61	1600	48	0
61	1600	48.1	0
61	1600	48.2	0
61	1600	48.3	0
61	1600	48.4	0
61	1600	48.5	0
61	1600	48.6	0
61	1600	48.7	0
61	1600	48.8	0
61	1600	48.9	0
61	1600	49	0
61	1600	49.1	0
61	1600	49.2	0
61	1600	49.3	0
61	1600	49.4	0
61	1600	49.5	0
61	1600	49.6	0
61	1600	49.7	0
61	1600	49.8	0
61	1600	49.9	0
61	1600	50	0
61	1600	50.1	0
61	1600	50.2	0
61	1600	50.3	0
61	1600	50.4	0
61	1600	50.5	0
61	1600	50.6	0
61	1600	50.7	0
61	1600	50.8	0
61	1600	50.9	0
61	1600	51	0
61	1600	51.1	0
61	1600	51.2	0
61	1600	51.3	0
61	1600	51.4	0
61	1600	51.5	0
61	1600	51.6	0
61	1600	51.7	0
61	1600	51.8	0
61	1600	51.9	0
61	1600	52	0
61	1600	52.1	0
61	1600	52.2	0
61	1600	52.3	0
61	1600	52.4	0
61	1600	52.5	0
61	1600	52.6	0
61	1600	52.7	0
61	1600	52.8	0
61	1600	52.9	0
61	1600	53	0
61	1600	53.1	0
61	1600	53.2	0
61	1600	53.3	0
61	1600	53.4	0
61	1600	53.5	0
61	1600	53.6	0
61	1600	53.7	0
61	1600	53.8	0
61	1600	53.9	0
61	1600	54	0
61	1600	54.1	0
61	1600	54.2	0
61	1600	54.3	0
61	1600	54.4	0
61	1600	54.5	0
61	1600	54.6	0
61	1600	54.7	0
61	1600	54.8	0
61	1600	54.9	0
61	1600	55	0
61	1600	55.1	0
61	1600	55.2	0
61	1600	55.3	0
61	1600	55.4	0
61	1600	55.5	0
61	1600	55.6	0
61	1600	55.7	0
61	1600	55.8	0
61	1600	55.9	0
61	1600	56	0
61	1600	56.1	0
61	1614	56.2	40960
61	1765	56.3	40960
61	1765	56.4	0
61	1765	56.5	0
61	1765	56.6	0
61	1765	56.7	0
61	1765	56.8	0
61	1765	56.9	0
61	1765	57	0
61	1765	57.1	0
61	1765	57.2	0
61	1765	57.3	0
61	1765	57.4	0
61	1765	57.5	0
61	1765	57.6	0
61	1765	57.7	0
61	1765	57.8	0
61	1765	57.9	0
61	1765	58	0
61	1765	58.1	0
61	1765	58.2	0
61	1765	58.3	0
61	1765	58.4	0
61	1765	58.5	0
61	1765	58.6	0
61	1765	58.7	0
61	1765	58.8	0
61	1765	58.9	0
61	1765	59	0
61	1765	59.1	0
61	1765	59.2	0
61	1765	59.3	0
61	1765	59.4	0
61	1765	59.5	0
61	1765	59.6	0
61	1765	59.7	0
61	1765	59.8	0
61	1765	59.9	0
61	1765	60	0
61	1765	60.1	0
61	1765	60.2	0
61	1765	60.3	0
61	1765	60.4	0
61	1765	60.5	0
61	1765	60.6	0
61	1765	60.7	0
61	1765	60.8	0
61	1765	60.9	0
61	1765	61	0
61	1765	61.1	0
61	1765	61.2	0
61	1765	61.3	0
61	1765	61.4	0
61	1765	61.5	0
61	1765	61.6	0
61	1765	61.7	0
61	1765	61.8	0
61	1765	61.9	0
61	1765	62	0
61	1765	62.1	0
61	1765	62.2	0
61	1765	62.3	0
61	1765	62.4	0
61	1765	62.5	0
61	1765	62.6	0
61	1765	62.7	0
61	1765	62.8	0
61	1765	62.9	0
61	1765	63	0
61	1765	63.1	0
61	1765	63.2	0
61	1765	63.3	0
61	1765	63.4	0
61	1765	63.5	0
61	1765	63.6	0
61	1765	63.7	0
61	1765	63.8	0
61	1765	63.9	0
61	1765	64	0
61	1765	64.1	0
61	1765	64.2	0
61	1796	64.3	81920
60	110	6.203424752908	512
60	121	6.282424752908	512
60	129	6.282424752908	512
60	190	8.213	512
60	283	16.196	512
60	291	16.196	512
60	334	16.197036256356	512
60	486	20.768424075055	512
60	531	20.821424075055	512
60	539	20.821424075055	512
60	600	24.202	512
60	694	29.817424225418	512
60	702	29.817424225418	512
60	780	29.818454273742	512
60	815	29.887848225436	512
60	909	30.207424544353	512
60	914	30.244424544353	512
60	978	30.24595889223	512
60	1081	35.230424566986	512
60	1085	35.294424566986	512
60	1175	40.232424431547	512
60	1203	40.266848569244	512
60	1222	40.27	512
60	1230	40.27	512
60	1299	40.271088407646	512
60	1358	40.375424431547	512
60	1404	42.197424244532	512
60	1425	42.299424244532	512
60	1600	56.162424216298	512
60	1614	56.276424216298	512
60	1765	64.216	512
60	1773	64.216	512
77	121	6.282424752908	512
77	283	16.196	512
77	531	20.821424075055	512
77	694	29.817424225418	512
77	1222	40.27	512
77	1765	64.216	512
63	110	6.203424752908	0
63	186	8.1	0
63	280	16.1	0
63	486	20.768424075055	0
63	593	24.1	0
63	694	29.817424225418	0.16666667163372
63	909	30.207424544353	0.14285714924335
63	1013	32.1	0.25
63	1081	35.230424566986	0.22222222387791
63	1137	40.1	0.20000000298023
63	1175	40.232424431547	0.18181818723679
63	1404	42.197424244532	0.16666667163372
63	1486	48.1	0.23076923191547
63	1572	56.1	0.28571429848671
63	1600	56.162424216298	0.26666668057442
63	1761	64.1	0.25
169	694	29.817424225418	1
169	1013	32.1	2
169	1486	48.1	3
169	1572	56.1	4
62	110	6.203424752908	1
62	186	8.1	2
62	280	16.1	3
62	486	20.768424075055	4
62	593	24.1	5
62	694	29.817424225418	6
62	909	30.207424544353	7
62	1013	32.1	8
62	1081	35.230424566986	9
62	1137	40.1	10
62	1175	40.232424431547	11
62	1404	42.197424244532	12
62	1486	48.1	13
62	1572	56.1	14
62	1600	56.162424216298	15
62	1761	64.1	16
64	111	6.203424752908	1
64	188	8.1	2
64	282	16.1	3
64	487	20.768424075055	4
64	596	24.1	5
64	910	30.207424544353	6
64	1082	35.230424566986	7
64	1140	40.1	8
64	1176	40.232424431547	9
64	1405	42.197424244532	10
64	1601	56.162424216298	11
64	1763	64.1	12
33	87	6.203	540
33	424	20.345424309596	540
33	833	29.933424654414	540
33	918	30.245	540
33	1693	60.199	540
33	1876	65.872424154424	540
33	2186	80.16742434105	540
33	2365	90.214	540
33	2509	96.185	540
34	87	6.203	540
34	424	20.345424309596	540
34	833	29.933424654414	540
34	918	30.245	540
34	1693	60.199	540
34	1876	65.872424154424	540
34	2186	80.16742434105	540
34	2365	90.214	540
34	2509	96.185	540
113	159	6.282849505816	570
113	411	20.290424309596	570
113	521	20.768997622313	570
113	718	29.817424654414	570
113	823	29.887848706125	570
113	986	30.2459593098	570
113	1217	40.266849254062	570
113	1313	40.271089092464	570
113	1346	40.271584093589	570
113	1415	42.197424815251	570
113	1643	56.811424051051	570
113	1827	65.20842435597	570
113	1863	65.771424154424	570
113	2039	75.217424395611	570
113	2103	77.116424325057	570
113	2179	80.16742434105	570
113	2244	80.32284870424	570
113	2453	92.811424558811	570
113	2597	98.195424545756	570
46	94	6.203	570
46	431	20.345424309596	570
46	840	29.933424654414	570
46	925	30.245	570
46	1700	60.199	570
46	1883	65.872424154424	570
46	2193	80.16748234105	570
46	2372	90.214	570
46	2516	96.185	570
35	90	6.203	542
35	427	20.345424309596	542
35	836	29.933424654414	542
35	921	30.245	542
35	1696	60.199	542
35	1879	65.872424154424	542
35	2189	80.16742434105	542
35	2368	90.214	542
35	2512	96.185	542
117	159	6.282849505816	542
117	411	20.290424309596	542
117	521	20.768997622313	542
117	718	29.817424654414	542
117	823	29.887848706125	542
117	986	30.2459593098	542
117	1217	40.266849254062	542
117	1313	40.271089092464	542
117	1346	40.271584093589	542
117	1415	42.197424815251	542
117	1643	56.811424051051	542
117	1827	65.20842435597	542
117	1863	65.771424154424	542
117	2039	75.217424395611	542
117	2103	77.116424325057	542
117	2179	80.16742434105	542
117	2244	80.32284870424	542
117	2453	92.811424558811	542
117	2597	98.195424545756	542
116	159	6.282849505816	570
116	411	20.290424309596	570
116	521	20.768997622313	570
116	718	29.817424654414	570
116	823	29.887848706125	570
116	986	30.2459593098	570
116	1217	40.266849254062	570
116	1313	40.271089092464	570
116	1346	40.271584093589	570
116	1415	42.197424815251	570
116	1643	56.811424051051	570
116	1827	65.20842435597	570
116	1863	65.771424154424	570
116	2039	75.217424395611	570
116	2103	77.116424325057	570
116	2179	80.16742434105	570
116	2244	80.32284870424	570
116	2453	92.811424558811	570
116	2597	98.195424545756	570
115	159	6.282849505816	570
115	411	20.290424309596	570
115	521	20.768997622313	570
115	718	29.817424654414	570
115	823	29.887848706125	570
115	986	30.2459593098	570
115	1217	40.266849254062	570
115	1313	40.271089092464	570
115	1346	40.271584093589	570
115	1415	42.197424815251	570
115	1643	56.811424051051	570
115	1827	65.20842435597	570
115	1863	65.771424154424	570
115	2039	75.217424395611	570
115	2103	77.116424325057	570
115	2179	80.16742434105	570
115	2244	80.32284870424	570
115	2453	92.811424558811	570
115	2597	98.195424545756	570
114	159	6.282849505816	570
114	411	20.290424309596	570
114	521	20.768997622313	570
114	718	29.817424654414	570
114	823	29.887848706125	570
114	986	30.2459593098	570
114	1217	40.266849254062	570
114	1313	40.271089092464	570
114	1346	40.271584093589	570
114	1415	42.197424815251	570
114	1643	56.811424051051	570
114	1827	65.20842435597	570
114	1863	65.771424154424	570
114	2039	75.217424395611	570
114	2103	77.116424325057	570
114	2179	80.16742434105	570
114	2244	80.32284870424	570
114	2453	92.811424558811	570
114	2597	98.195424545756	570
51	101	6.203424	570
51	438	20.345848309596	570
51	847	29.933848654414	570
51	932	30.245424	570
51	1707	60.199424	570
51	1889	65.872848154424	570
51	2199	80.16790634105	570
51	2378	90.214424	570
51	2522	96.185424	570
50	101	6.203424	570
50	438	20.345848309596	570
50	847	29.933848654414	570
50	932	30.245424	570
50	1707	60.199424	570
50	1889	65.872848154424	570
50	2199	80.16790634105	570
50	2378	90.214424	570
50	2522	96.185424	570
49	101	6.203424	570
49	438	20.345848309596	570
49	847	29.933848654414	570
49	932	30.245424	570
49	1707	60.199424	570
49	1889	65.872848154424	570
49	2199	80.16790634105	570
49	2378	90.214424	570
49	2522	96.185424	570
47	94	6.203	1
47	101	6.203424	0
47	431	20.345424309596	1
47	438	20.345848309596	0
47	840	29.933424654414	1
47	847	29.933848654414	0
47	925	30.245	1
47	932	30.245424	0
47	1700	60.199	1
47	1707	60.199424	0
47	1883	65.872424154424	1
47	1889	65.872848154424	0
47	2193	80.16748234105	1
47	2199	80.16790634105	0
47	2372	90.214	1
47	2378	90.214424	0
47	2516	96.185	1
47	2522	96.185424	0
45	94	6.203	12000000
45	431	20.345424309596	12000000
45	840	29.933424654414	12000000
45	925	30.245	12000000
45	1700	60.199	12000000
45	1883	65.872424154424	12000000
45	2193	80.16748234105	12000000
45	2372	90.214	12000000
45	2516	96.185	12000000
43	94	6.203	0
43	431	20.345424309596	0
43	840	29.933424654414	0
43	925	30.245	0
43	1700	60.199	0
43	1883	65.872424154424	0
43	2193	80.16748234105	5.8e-005
43	2372	90.214	0
43	2516	96.185	0
42	94	6.203	570
42	431	20.345424309596	570
42	840	29.933424654414	570
42	925	30.245	570
42	1700	60.199	570
42	1883	65.872424154424	570
42	2193	80.16748234105	570
42	2372	90.214	570
42	2516	96.185	570
36	90	6.203	570
36	427	20.345424309596	570
36	836	29.933424654414	570
36	921	30.245	570
36	1696	60.199	570
36	1879	65.872424154424	570
36	2189	80.16742434105	570
36	2368	90.214	570
36	2512	96.185	570
37	90	6.203	1
37	94	6.203	0
37	427	20.345424309596	1
37	431	20.345424309596	0
37	836	29.933424654414	1
37	840	29.933424654414	0
37	921	30.245	1
37	925	30.245	0
37	1696	60.199	1
37	1700	60.199	0
37	1879	65.872424154424	1
37	1883	65.872424154424	0
37	2189	80.16742434105	1
37	2193	80.16748234105	0
37	2368	90.214	1
37	2372	90.214	0
37	2512	96.185	1
37	2516	96.185	0
52	101	6.203424	0.000424
52	438	20.345848309596	0.000424
52	847	29.933848654414	0.000424
52	932	30.245424	0.000424
52	1707	60.199424	0.000424
52	1889	65.872848154424	0.000424
52	2199	80.16790634105	0.000424
52	2378	90.214424	0.000424
52	2522	96.185424	0.000424
44	94	6.203	1
44	101	6.203424	0
44	431	20.345424309596	1
44	438	20.345848309596	0
44	840	29.933424654414	1
44	847	29.933848654414	0
44	925	30.245	1
44	932	30.245424	0
44	1700	60.199	1
44	1707	60.199424	0
44	1883	65.872424154424	1
44	1889	65.872848154424	0
44	2193	80.16748234105	1
44	2199	80.16790634105	0
44	2372	90.214	1
44	2378	90.214424	0
44	2516	96.185	1
44	2522	96.185424	0
39	90	6.203	1
39	93	6.203	0
39	427	20.345424309596	1
39	430	20.345424309596	0
39	836	29.933424654414	1
39	839	29.933424654414	0
39	921	30.245	1
39	924	30.245	0
39	1696	60.199	1
39	1699	60.199	0
39	1879	65.872424154424	1
39	1882	65.872424154424	0
39	2189	80.16742434105	1
39	2192	80.16748234105	0
39	2368	90.214	1
39	2371	90.214	0
39	2512	96.185	1
39	2515	96.185	0
38	90	6.203	8
38	427	20.345424309596	6
38	836	29.933424654414	13
38	921	30.245	9
38	1696	60.199	8
38	1879	65.872424154424	3
38	2189	80.16742434105	0
38	2368	90.214	9
38	2512	96.185	15
7	2	0.1	15
48	95	6.203	1
48	96	6.203	2
48	101	6.203424	1
48	102	6.203424	0
48	432	20.345424309596	1
48	433	20.345424309596	2
48	438	20.345848309596	1
48	439	20.345848309596	0
48	841	29.933424654414	1
48	842	29.933424654414	2
48	847	29.933848654414	1
48	848	29.933848654414	0
48	926	30.245	1
48	927	30.245	2
48	932	30.245424	1
48	933	30.245424	0
48	1701	60.199	1
48	1702	60.199	2
48	1707	60.199424	1
48	1708	60.199424	0
48	1884	65.872424154424	1
48	1885	65.872424154424	2
48	1889	65.872848154424	1
48	1890	65.872848154424	0
48	2194	80.16748234105	1
48	2195	80.16748234105	2
48	2199	80.16790634105	1
48	2200	80.16790634105	0
48	2373	90.214	1
48	2374	90.214	2
48	2378	90.214424	1
48	2379	90.214424	0
48	2517	96.185	1
48	2518	96.185	2
48	2522	96.185424	1
48	2523	96.185424	0
6	2	0.1	1
6	95	6.203	0
6	102	6.203424	1
6	137	6.282425505816	3
6	158	6.282849505816	1
6	398	20.290000309596	3
6	410	20.290424309596	1
6	432	20.345424309596	0
6	439	20.345848309596	1
6	509	20.768573622313	3
6	520	20.768997622313	1
6	679	29.817000654414	3
6	717	29.817424654414	1
6	801	29.887424706125	3
6	822	29.887848706125	1
6	841	29.933424654414	0
6	848	29.933848654414	1
6	926	30.245	0
6	933	30.245424	1
6	964	30.2455353098	3
6	985	30.2459593098	1
6	1195	40.266425254062	3
6	1216	40.266849254062	1
6	1291	40.270665092464	3
6	1312	40.271089092464	1
6	1331	40.271160093589	3
6	1345	40.271584093589	1
6	1396	42.197000815251	3
6	1414	42.197424815251	1
6	1636	56.811000051051	3
6	1642	56.811424051051	1
6	1701	60.199	0
6	1708	60.199424	1
6	1821	65.20800035597	3
6	1826	65.20842435597	1
6	1857	65.771000154424	3
6	1862	65.771424154424	1
6	1884	65.872424154424	0
6	1890	65.872848154424	1
6	2021	75.217000395611	3
6	2038	75.217424395611	1
6	2085	77.116000325057	3
6	2102	77.116424325057	1
6	2161	80.16700034105	3
6	2178	80.16742434105	1
6	2194	80.16748234105	0
6	2200	80.16790634105	1
6	2233	80.32242470424	3
6	2243	80.32284870424	1
6	2373	90.214	0
6	2379	90.214424	1
6	2441	92.811000558811	3
6	2452	92.811424558811	1
6	2517	96.185	0
6	2523	96.185424	1
6	2579	98.195000545756	3
6	2596	98.195424545756	1
4	2	0.1	0
4	2	0.1	0
4	2	0.1	2
4	95	6.203	3
4	102	6.203424	2
4	432	20.345424309596	3
4	439	20.345848309596	2
4	841	29.933424654414	3
4	848	29.933848654414	2
4	926	30.245	3
4	933	30.245424	2
4	1701	60.199	3
4	1708	60.199424	2
4	1884	65.872424154424	3
4	1890	65.872848154424	2
4	2194	80.16748234105	3
4	2200	80.16790634105	2
4	2373	90.214	3
4	2379	90.214424	2
4	2517	96.185	3
4	2523	96.185424	2
5	2	0.1	3
40	91	6.203	520
40	162	6.282849505816	520
40	414	20.290424309596	520
40	428	20.345424309596	520
40	524	20.768997622313	520
40	721	29.817424654414	520
40	826	29.887848706125	520
40	837	29.933424654414	520
40	922	30.245	520
40	989	30.2459593098	520
40	1220	40.266849254062	520
40	1316	40.271089092464	520
40	1349	40.271584093589	520
40	1418	42.197424815251	520
40	1646	56.811424051051	520
40	1697	60.199	520
40	1830	65.20842435597	520
40	1866	65.771424154424	520
40	1880	65.872424154424	520
40	2042	75.217424395611	520
40	2106	77.116424325057	520
40	2182	80.16742434105	520
40	2190	80.16742434105	520
40	2247	80.32284870424	520
40	2369	90.214	520
40	2456	92.811424558811	520
40	2513	96.185	520
40	2600	98.195424545756	520
32	85	6.203	520
32	422	20.345424309596	520
32	831	29.933424654414	520
32	916	30.245	520
32	1691	60.199	520
32	1874	65.872424154424	520
32	2184	80.16742434105	520
32	2363	90.214	520
32	2507	96.185	520
41	91	6.203	1
41	162	6.282849505816	2
41	414	20.290424309596	3
41	428	20.345424309596	4
41	524	20.768997622313	5
41	721	29.817424654414	6
41	826	29.887848706125	7
41	837	29.933424654414	8
41	922	30.245	9
41	989	30.2459593098	10
41	1220	40.266849254062	11
41	1316	40.271089092464	12
41	1349	40.271584093589	13
41	1418	42.197424815251	14
41	1646	56.811424051051	15
41	1697	60.199	16
41	1830	65.20842435597	17
41	1866	65.771424154424	18
41	1880	65.872424154424	19
41	2042	75.217424395611	20
41	2106	77.116424325057	21
41	2182	80.16742434105	22
41	2190	80.16742434105	23
41	2247	80.32284870424	24
41	2369	90.214	25
41	2456	92.811424558811	26
41	2513	96.185	27
41	2600	98.195424545756	28
118	163	6.282849505816	0
118	239	12.212	0
118	359	18.1	5
118	598	24.167	0
118	990	30.2459593098	0
118	1095	36.1	6
118	1221	40.266849254062	28
118	1377	42.1	18
118	1487	48.1	0
118	1550	54.1	48
118	1907	66.1	0
118	1970	72.1	0
118	2122	78.1	0
118	2295	84.1	0
118	2648	102.1	36
30	84	0.1	0
30	84	0.2	0
30	84	0.3	0
30	84	0.4	0
30	84	0.5	0
30	84	0.6	0
30	84	0.7	0
30	84	0.8	0
30	84	0.9	0
30	84	1	0
30	84	1.1	0
30	84	1.2	0
30	84	1.3	0
30	84	1.4	0
30	84	1.5	0
30	84	1.6	0
30	84	1.7	0
30	84	1.8	0
30	84	1.9	0
30	84	2	0
30	84	2.1	0
30	84	2.2	0
30	84	2.3	0
30	84	2.4	0
30	84	2.5	0
30	84	2.6	0
30	84	2.7	0
30	84	2.8	0
30	84	2.9	0
30	84	3	0
30	84	3.1	0
30	84	3.2	0
30	84	3.3	0
30	84	3.4	0
30	84	3.5	0
30	84	3.6	0
30	84	3.7	0
30	84	3.8	0
30	84	3.9	0
30	84	4	0
30	84	4.1	0
30	84	4.2	0
30	84	4.3	0
30	84	4.4	0
30	84	4.5	0
30	84	4.6	0
30	84	4.7	0
30	84	4.8	0
30	84	4.9	0
30	84	5	0
30	84	5.1	0
30	84	5.2	0
30	84	5.3	0
30	84	5.4	0
30	84	5.5	0
30	84	5.6	0
30	84	5.7	0
30	84	5.8	0
30	84	5.9	0
30	84	6	0
30	84	6.1	0
30	84	6.2	0
30	239	6.3	122880
30	239	6.4	0
30	239	6.5	0
30	239	6.6	0
30	239	6.7	0
30	239	6.8	0
30	239	6.9	0
30	239	7	0
30	239	7.1	0
30	239	7.2	0
30	239	7.3	0
30	239	7.4	0
30	239	7.5	0
30	239	7.6	0
30	239	7.7	0
30	239	7.8	0
30	239	7.9	0
30	239	8	0
30	239	8.1	0
30	239	8.2	0
30	239	8.3	0
30	239	8.4	0
30	239	8.5	0
30	239	8.6	0
30	239	8.7	0
30	239	8.8	0
30	239	8.9	0
30	239	9	0
30	239	9.1	0
30	239	9.2	0
30	239	9.3	0
30	239	9.4	0
30	239	9.5	0
30	239	9.6	0
30	239	9.7	0
30	239	9.8	0
30	239	9.9	0
30	239	10	0
30	239	10.1	0
30	239	10.2	0
30	239	10.3	0
30	239	10.4	0
30	239	10.5	0
30	239	10.6	0
30	239	10.7	0
30	239	10.8	0
30	239	10.9	0
30	239	11	0
30	239	11.1	0
30	239	11.2	0
30	239	11.3	0
30	239	11.4	0
30	239	11.5	0
30	239	11.6	0
30	239	11.7	0
30	239	11.8	0
30	239	11.9	0
30	239	12	0
30	239	12.1	0
30	239	12.2	0
30	415	12.3	40960
30	415	12.4	0
30	415	12.5	0
30	415	12.6	0
30	415	12.7	0
30	415	12.8	0
30	415	12.9	0
30	415	13	0
30	415	13.1	0
30	415	13.2	0
30	415	13.3	0
30	415	13.4	0
30	415	13.5	0
30	415	13.6	0
30	415	13.7	0
30	415	13.8	0
30	415	13.9	0
30	415	14	0
30	415	14.1	0
30	415	14.2	0
30	415	14.3	0
30	415	14.4	0
30	415	14.5	0
30	415	14.6	0
30	415	14.7	0
30	415	14.8	0
30	415	14.9	0
30	415	15	0
30	415	15.1	0
30	415	15.2	0
30	415	15.3	0
30	415	15.4	0
30	415	15.5	0
30	415	15.6	0
30	415	15.7	0
30	415	15.8	0
30	415	15.9	0
30	415	16	0
30	415	16.1	0
30	415	16.2	0
30	415	16.3	0
30	415	16.4	0
30	415	16.5	0
30	415	16.6	0
30	415	16.7	0
30	415	16.8	0
30	415	16.9	0
30	415	17	0
30	415	17.1	0
30	415	17.2	0
30	415	17.3	0
30	415	17.4	0
30	415	17.5	0
30	415	17.6	0
30	415	17.7	0
30	415	17.8	0
30	415	17.9	0
30	415	18	0
30	415	18.1	0
30	415	18.2	0
30	415	18.3	0
30	415	18.4	0
30	415	18.5	0
30	415	18.6	0
30	415	18.7	0
30	415	18.8	0
30	415	18.9	0
30	415	19	0
30	415	19.1	0
30	415	19.2	0
30	415	19.3	0
30	415	19.4	0
30	415	19.5	0
30	415	19.6	0
30	415	19.7	0
30	415	19.8	0
30	415	19.9	0
30	415	20	0
30	415	20.1	0
30	415	20.2	0
30	421	20.3	40960
30	525	20.4	81920
30	525	20.5	0
30	525	20.6	0
30	525	20.7	0
30	598	20.8	40960
30	598	20.9	0
30	598	21	0
30	598	21.1	0
30	598	21.2	0
30	598	21.3	0
30	598	21.4	0
30	598	21.5	0
30	598	21.6	0
30	598	21.7	0
30	598	21.8	0
30	598	21.9	0
30	598	22	0
30	598	22.1	0
30	598	22.2	0
30	598	22.3	0
30	598	22.4	0
30	598	22.5	0
30	598	22.6	0
30	598	22.7	0
30	598	22.8	0
30	598	22.9	0
30	598	23	0
30	598	23.1	0
30	598	23.2	0
30	598	23.3	0
30	598	23.4	0
30	598	23.5	0
30	598	23.6	0
30	598	23.7	0
30	598	23.8	0
30	598	23.9	0
30	598	24	0
30	598	24.1	0
30	722	24.2	40960
30	722	24.3	0
30	722	24.4	0
30	722	24.5	0
30	722	24.6	0
30	722	24.7	0
30	722	24.8	0
30	722	24.9	0
30	722	25	0
30	722	25.1	0
30	722	25.2	0
30	722	25.3	0
30	722	25.4	0
30	722	25.5	0
30	722	25.6	0
30	722	25.7	0
30	722	25.8	0
30	722	25.9	0
30	722	26	0
30	722	26.1	0
30	722	26.2	0
30	722	26.3	0
30	722	26.4	0
30	722	26.5	0
30	722	26.6	0
30	722	26.7	0
30	722	26.8	0
30	722	26.9	0
30	722	27	0
30	722	27.1	0
30	722	27.2	0
30	722	27.3	0
30	722	27.4	0
30	722	27.5	0
30	722	27.6	0
30	722	27.7	0
30	722	27.8	0
30	722	27.9	0
30	722	28	0
30	722	28.1	0
30	722	28.2	0
30	722	28.3	0
30	722	28.4	0
30	722	28.5	0
30	722	28.6	0
30	722	28.7	0
30	722	28.8	0
30	722	28.9	0
30	722	29	0
30	722	29.1	0
30	722	29.2	0
30	722	29.3	0
30	722	29.4	0
30	722	29.5	0
30	722	29.6	0
30	722	29.7	0
30	722	29.8	0
30	830	29.9	81920
30	915	30	81920
30	915	30.1	0
30	915	30.2	0
30	1221	30.3	122880
30	1221	30.4	0
30	1221	30.5	0
30	1221	30.6	0
30	1221	30.7	0
30	1221	30.8	0
30	1221	30.9	0
30	1221	31	0
30	1221	31.1	0
30	1221	31.2	0
30	1221	31.3	0
30	1221	31.4	0
30	1221	31.5	0
30	1221	31.6	0
30	1221	31.7	0
30	1221	31.8	0
30	1221	31.9	0
30	1221	32	0
30	1221	32.1	0
30	1221	32.2	0
30	1221	32.3	0
30	1221	32.4	0
30	1221	32.5	0
30	1221	32.6	0
30	1221	32.7	0
30	1221	32.8	0
30	1221	32.9	0
30	1221	33	0
30	1221	33.1	0
30	1221	33.2	0
30	1221	33.3	0
30	1221	33.4	0
30	1221	33.5	0
30	1221	33.6	0
30	1221	33.7	0
30	1221	33.8	0
30	1221	33.9	0
30	1221	34	0
30	1221	34.1	0
30	1221	34.2	0
30	1221	34.3	0
30	1221	34.4	0
30	1221	34.5	0
30	1221	34.6	0
30	1221	34.7	0
30	1221	34.8	0
30	1221	34.9	0
30	1221	35	0
30	1221	35.1	0
30	1221	35.2	0
30	1221	35.3	0
30	1221	35.4	0
30	1221	35.5	0
30	1221	35.6	0
30	1221	35.7	0
30	1221	35.8	0
30	1221	35.9	0
30	1221	36	0
30	1221	36.1	0
30	1221	36.2	0
30	1221	36.3	0
30	1221	36.4	0
30	1221	36.5	0
30	1221	36.6	0
30	1221	36.7	0
30	1221	36.8	0
30	1221	36.9	0
30	1221	37	0
30	1221	37.1	0
30	1221	37.2	0
30	1221	37.3	0
30	1221	37.4	0
30	1221	37.5	0
30	1221	37.6	0
30	1221	37.7	0
30	1221	37.8	0
30	1221	37.9	0
30	1221	38	0
30	1221	38.1	0
30	1221	38.2	0
30	1221	38.3	0
30	1221	38.4	0
30	1221	38.5	0
30	1221	38.6	0
30	1221	38.7	0
30	1221	38.8	0
30	1221	38.9	0
30	1221	39	0
30	1221	39.1	0
30	1221	39.2	0
30	1221	39.3	0
30	1221	39.4	0
30	1221	39.5	0
30	1221	39.6	0
30	1221	39.7	0
30	1221	39.8	0
30	1221	39.9	0
30	1221	40	0
30	1221	40.1	0
30	1221	40.2	0
30	1419	40.3	122880
30	1419	40.4	0
30	1419	40.5	0
30	1419	40.6	0
30	1419	40.7	0
30	1419	40.8	0
30	1419	40.9	0
30	1419	41	0
30	1419	41.1	0
30	1419	41.2	0
30	1419	41.3	0
30	1419	41.4	0
30	1419	41.5	0
30	1419	41.6	0
30	1419	41.7	0
30	1419	41.8	0
30	1419	41.9	0
30	1419	42	0
30	1419	42.1	0
30	1424	42.2	40960
30	1647	42.3	40960
30	1647	42.4	0
30	1647	42.5	0
30	1647	42.6	0
30	1647	42.7	0
30	1647	42.8	0
30	1647	42.9	0
30	1647	43	0
30	1647	43.1	0
30	1647	43.2	0
30	1647	43.3	0
30	1647	43.4	0
30	1647	43.5	0
30	1647	43.6	0
30	1647	43.7	0
30	1647	43.8	0
30	1647	43.9	0
30	1647	44	0
30	1647	44.1	0
30	1647	44.2	0
30	1647	44.3	0
30	1647	44.4	0
30	1647	44.5	0
30	1647	44.6	0
30	1647	44.7	0
30	1647	44.8	0
30	1647	44.9	0
30	1647	45	0
30	1647	45.1	0
30	1647	45.2	0
30	1647	45.3	0
30	1647	45.4	0
30	1647	45.5	0
30	1647	45.6	0
30	1647	45.7	0
30	1647	45.8	0
30	1647	45.9	0
30	1647	46	0
30	1647	46.1	0
30	1647	46.2	0
30	1647	46.3	0
30	1647	46.4	0
30	1647	46.5	0
30	1647	46.6	0
30	1647	46.7	0
30	1647	46.8	0
30	1647	46.9	0
30	1647	47	0
30	1647	47.1	0
30	1647	47.2	0
30	1647	47.3	0
30	1647	47.4	0
30	1647	47.5	0
30	1647	47.6	0
30	1647	47.7	0
30	1647	47.8	0
30	1647	47.9	0
30	1647	48	0
30	1647	48.1	0
30	1647	48.2	0
30	1647	48.3	0
30	1647	48.4	0
30	1647	48.5	0
30	1647	48.6	0
30	1647	48.7	0
30	1647	48.8	0
30	1647	48.9	0
30	1647	49	0
30	1647	49.1	0
30	1647	49.2	0
30	1647	49.3	0
30	1647	49.4	0
30	1647	49.5	0
30	1647	49.6	0
30	1647	49.7	0
30	1647	49.8	0
30	1647	49.9	0
30	1647	50	0
30	1647	50.1	0
30	1647	50.2	0
30	1647	50.3	0
30	1647	50.4	0
30	1647	50.5	0
30	1647	50.6	0
30	1647	50.7	0
30	1647	50.8	0
30	1647	50.9	0
30	1647	51	0
30	1647	51.1	0
30	1647	51.2	0
30	1647	51.3	0
30	1647	51.4	0
30	1647	51.5	0
30	1647	51.6	0
30	1647	51.7	0
30	1647	51.8	0
30	1647	51.9	0
30	1647	52	0
30	1647	52.1	0
30	1647	52.2	0
30	1647	52.3	0
30	1647	52.4	0
30	1647	52.5	0
30	1647	52.6	0
30	1647	52.7	0
30	1647	52.8	0
30	1647	52.9	0
30	1647	53	0
30	1647	53.1	0
30	1647	53.2	0
30	1647	53.3	0
30	1647	53.4	0
30	1647	53.5	0
30	1647	53.6	0
30	1647	53.7	0
30	1647	53.8	0
30	1647	53.9	0
30	1647	54	0
30	1647	54.1	0
30	1647	54.2	0
30	1647	54.3	0
30	1647	54.4	0
30	1647	54.5	0
30	1647	54.6	0
30	1647	54.7	0
30	1647	54.8	0
30	1647	54.9	0
30	1647	55	0
30	1647	55.1	0
30	1647	55.2	0
30	1647	55.3	0
30	1647	55.4	0
30	1647	55.5	0
30	1647	55.6	0
30	1647	55.7	0
30	1647	55.8	0
30	1647	55.9	0
30	1647	56	0
30	1647	56.1	0
30	1647	56.2	0
30	1647	56.3	0
30	1647	56.4	0
30	1647	56.5	0
30	1647	56.6	0
30	1647	56.7	0
30	1647	56.8	0
30	1690	56.9	81920
30	1690	57	0
30	1690	57.1	0
30	1690	57.2	0
30	1690	57.3	0
30	1690	57.4	0
30	1690	57.5	0
30	1690	57.6	0
30	1690	57.7	0
30	1690	57.8	0
30	1690	57.9	0
30	1690	58	0
30	1690	58.1	0
30	1690	58.2	0
30	1690	58.3	0
30	1690	58.4	0
30	1690	58.5	0
30	1690	58.6	0
30	1690	58.7	0
30	1690	58.8	0
30	1690	58.9	0
30	1690	59	0
30	1690	59.1	0
30	1690	59.2	0
30	1690	59.3	0
30	1690	59.4	0
30	1690	59.5	0
30	1690	59.6	0
30	1690	59.7	0
30	1690	59.8	0
30	1690	59.9	0
30	1690	60	0
30	1690	60.1	0
30	1831	60.2	81920
30	1831	60.3	0
30	1831	60.4	0
30	1831	60.5	0
30	1831	60.6	0
30	1831	60.7	0
30	1831	60.8	0
30	1831	60.9	0
30	1831	61	0
30	1831	61.1	0
30	1831	61.2	0
30	1831	61.3	0
30	1831	61.4	0
30	1831	61.5	0
30	1831	61.6	0
30	1831	61.7	0
30	1831	61.8	0
30	1831	61.9	0
30	1831	62	0
30	1831	62.1	0
30	1831	62.2	0
30	1831	62.3	0
30	1831	62.4	0
30	1831	62.5	0
30	1831	62.6	0
30	1831	62.7	0
30	1831	62.8	0
30	1831	62.9	0
30	1831	63	0
30	1831	63.1	0
30	1831	63.2	0
30	1831	63.3	0
30	1831	63.4	0
30	1831	63.5	0
30	1831	63.6	0
30	1831	63.7	0
30	1831	63.8	0
30	1831	63.9	0
30	1831	64	0
30	1831	64.1	0
30	1831	64.2	0
30	1831	64.3	0
30	1831	64.4	0
30	1831	64.5	0
30	1831	64.6	0
30	1831	64.7	0
30	1831	64.8	0
30	1831	64.9	0
30	1831	65	0
30	1831	65.1	0
30	1831	65.2	0
30	1867	65.3	81920
30	1867	65.4	0
30	1867	65.5	0
30	1867	65.6	0
30	1867	65.7	0
30	1873	65.8	40960
30	2043	65.9	81920
30	2043	66	0
30	2043	66.1	0
30	2043	66.2	0
30	2043	66.3	0
30	2043	66.4	0
30	2043	66.5	0
30	2043	66.6	0
30	2043	66.7	0
30	2043	66.8	0
30	2043	66.9	0
30	2043	67	0
30	2043	67.1	0
30	2043	67.2	0
30	2043	67.3	0
30	2043	67.4	0
30	2043	67.5	0
30	2043	67.6	0
30	2043	67.7	0
30	2043	67.8	0
30	2043	67.9	0
30	2043	68	0
30	2043	68.1	0
30	2043	68.2	0
30	2043	68.3	0
30	2043	68.4	0
30	2043	68.5	0
30	2043	68.6	0
30	2043	68.7	0
30	2043	68.8	0
30	2043	68.9	0
30	2043	69	0
30	2043	69.1	0
30	2043	69.2	0
30	2043	69.3	0
30	2043	69.4	0
30	2043	69.5	0
30	2043	69.6	0
30	2043	69.7	0
30	2043	69.8	0
30	2043	69.9	0
30	2043	70	0
30	2043	70.1	0
30	2043	70.2	0
30	2043	70.3	0
30	2043	70.4	0
30	2043	70.5	0
30	2043	70.6	0
30	2043	70.7	0
30	2043	70.8	0
30	2043	70.9	0
30	2043	71	0
30	2043	71.1	0
30	2043	71.2	0
30	2043	71.3	0
30	2043	71.4	0
30	2043	71.5	0
30	2043	71.6	0
30	2043	71.7	0
30	2043	71.8	0
30	2043	71.9	0
30	2043	72	0
30	2043	72.1	0
30	2043	72.2	0
30	2043	72.3	0
30	2043	72.4	0
30	2043	72.5	0
30	2043	72.6	0
30	2043	72.7	0
30	2043	72.8	0
30	2043	72.9	0
30	2043	73	0
30	2043	73.1	0
30	2043	73.2	0
30	2043	73.3	0
30	2043	73.4	0
30	2043	73.5	0
30	2043	73.6	0
30	2043	73.7	0
30	2043	73.8	0
30	2043	73.9	0
30	2043	74	0
30	2043	74.1	0
30	2043	74.2	0
30	2043	74.3	0
30	2043	74.4	0
30	2043	74.5	0
30	2043	74.6	0
30	2043	74.7	0
30	2043	74.8	0
30	2043	74.9	0
30	2043	75	0
30	2043	75.1	0
30	2043	75.2	0
30	2048	75.3	40960
30	2107	75.4	40960
30	2107	75.5	0
30	2107	75.6	0
30	2107	75.7	0
30	2107	75.8	0
30	2107	75.9	0
30	2107	76	0
30	2107	76.1	0
30	2107	76.2	0
30	2107	76.3	0
30	2107	76.4	0
30	2107	76.5	0
30	2107	76.6	0
30	2107	76.7	0
30	2107	76.8	0
30	2107	76.9	0
30	2107	77	0
30	2107	77.1	0
30	2113	77.2	40960
30	2183	77.3	40960
30	2183	77.4	0
30	2183	77.5	0
30	2183	77.6	0
30	2183	77.7	0
30	2183	77.8	0
30	2183	77.9	0
30	2183	78	0
30	2183	78.1	0
30	2183	78.2	0
30	2183	78.3	0
30	2183	78.4	0
30	2183	78.5	0
30	2183	78.6	0
30	2183	78.7	0
30	2183	78.8	0
30	2183	78.9	0
30	2183	79	0
30	2183	79.1	0
30	2183	79.2	0
30	2183	79.3	0
30	2183	79.4	0
30	2183	79.5	0
30	2183	79.6	0
30	2183	79.7	0
30	2183	79.8	0
30	2183	79.9	0
[...]
105	2564	97	0
105	2564	97.1	0
105	2564	97.2	0
105	2564	97.3	0
105	2564	97.4	0
105	2564	97.5	0
105	2564	97.6	0
105	2564	97.7	0
105	2564	97.8	0
105	2564	97.9	0
105	2564	98	0
105	2564	98.1	0
105	3327	98.2	81920
105	3327	98.3	0
105	3327	98.4	0
105	3327	98.5	0
105	3327	98.6	0
105	3327	98.7	0
105	3327	98.8	0
105	3327	98.9	0
105	3327	99	0
105	3327	99.1	0
105	3327	99.2	0
105	3327	99.3	0
105	3327	99.4	0
105	3327	99.5	0
105	3327	99.6	0
105	3327	99.7	0
105	3327	99.8	0
105	3327	99.9	0
105	3327	100	0
105	3327	100.1	0
105	3327	100.2	0
105	3327	100.3	0
105	3327	100.4	0
105	3327	100.5	0
105	3327	100.6	0
105	3327	100.7	0
105	3327	100.8	0
105	3327	100.9	0
105	3327	101	0
105	3327	101.1	0
105	3327	101.2	0
105	3327	101.3	0
105	3327	101.4	0
105	3327	101.5	0
105	3327	101.6	0
105	3327	101.7	0
105	3327	101.8	0
105	3327	101.9	0
105	3327	102	0
105	3327	102.1	0
105	3327	102.2	0
105	3327	102.3	0
105	3327	102.4	0
105	3327	102.5	0
105	3327	102.6	0
105	3327	102.7	0
105	3327	102.8	0
105	3327	102.9	0
105	3327	103	0
105	3327	103.1	0
105	3327	103.2	0
105	3327	103.3	0
105	3327	103.4	0
105	3327	103.5	0
105	3327	103.6	0
105	3327	103.7	0
105	3327	103.8	0
105	3327	103.9	0
105	3327	104	0
105	3327	104.1	0
105	3327	104.2	0
105	3327	104.3	0
105	3327	104.4	0
105	3327	104.5	0
105	3327	104.6	0
105	3327	104.7	0
105	3327	104.8	0
105	3327	104.9	0
105	3327	105	0
105	3327	105.1	0
105	3327	105.2	0
105	3327	105.3	0
105	3327	105.4	0
105	3327	105.5	0
105	3327	105.6	0
105	3327	105.7	0
105	3327	105.8	0
105	3327	105.9	0
105	3327	106	0
105	3327	106.1	0
105	3327	106.2	0
105	3327	106.3	0
105	3327	106.4	0
105	3327	106.5	0
105	3327	106.6	0
105	3327	106.7	0
105	3327	106.8	0
105	3327	106.9	0
105	3327	107	0
105	3327	107.1	0
105	3327	107.2	0
105	3327	107.3	0
105	3327	107.4	0
105	3327	107.5	0
105	3327	107.6	0
105	3327	107.7	0
105	3327	107.8	0
105	3327	107.9	0
105	3327	108	0
105	3327	108.1	0
105	3327	108.2	0
105	3327	108.3	0
105	3327	108.4	0
105	3327	108.5	0
105	3327	108.6	0
105	3327	108.7	0
105	3327	108.8	0
105	3327	108.9	0
105	3327	109	0
105	3327	109.1	0
105	3327	109.2	0
105	3327	109.3	0
105	3327	109.4	0
105	3327	109.5	0
105	3327	109.6	0
105	3327	109.7	0
105	3327	109.8	0
105	3327	109.9	0
105	3327	110	0
105	3327	110.1	0
105	3327	110.2	0
105	3327	110.3	0
105	3327	110.4	0
105	3327	110.5	0
105	3327	110.6	0
105	3327	110.7	0
105	3327	110.8	0
105	3327	110.9	0
105	3327	111	0
105	3327	111.1	0
105	3327	111.2	0
105	3327	111.3	0
105	3327	111.4	0
105	3327	111.5	0
105	3327	111.6	0
105	3327	111.7	0
105	3327	111.8	0
105	3327	111.9	0
105	3327	112	0
105	3327	112.1	0
105	3327	112.2	0
105	3327	112.3	0
105	3327	112.4	0
105	3327	112.5	0
105	3327	112.6	0
105	3327	112.7	0
105	3327	112.8	0
105	3327	112.9	0
105	3327	113	0
105	3327	113.1	0
105	3327	113.2	0
105	3327	113.3	0
105	3327	113.4	0
105	3327	113.5	0
105	3327	113.6	0
105	3327	113.7	0
105	3327	113.8	0
105	3327	113.9	0
105	3327	114	0
105	3327	114.1	0
105	3327	114.2	0
105	3327	114.3	0
105	3327	114.4	0
105	3327	114.5	0
105	3327	114.6	0
105	3327	114.7	0
105	3327	114.8	0
105	3327	114.9	0
105	3327	115	0
105	3327	115.1	0
105	3327	115.2	0
105	3327	115.3	0
105	3327	115.4	0
105	3327	115.5	0
105	3327	115.6	0
105	3327	115.7	0
105	3327	115.8	0
105	3327	115.9	0
105	3327	116	0
105	3327	116.1	0
105	3327	116.2	0
105	3327	116.3	0
105	3327	116.4	0
105	3327	116.5	0
105	3327	116.6	0
105	3327	116.7	0
105	3327	116.8	0
105	3327	116.9	0
105	3327	117	0
105	3327	117.1	0
105	3327	117.2	0
105	3327	117.3	0
105	3327	117.4	0
105	3327	117.5	0
105	3327	117.6	0
105	3327	117.7	0
105	3327	117.8	0
105	3327	117.9	0
105	3327	118	0
105	3327	118.1	0
105	3327	118.2	0
105	3327	118.3	0
105	3327	118.4	0
105	3327	118.5	0
105	3327	118.6	0
105	3327	118.7	0
105	3327	118.8	0
105	3327	118.9	0
105	3327	119	0
105	3327	119.1	0
105	3327	119.2	0
105	3327	119.3	0
105	3327	119.4	0
105	3327	119.5	0
105	3327	119.6	0
105	3327	119.7	0
105	3327	119.8	0
105	3327	119.9	0
105	3327	120	0
105	3327	120.1	0
105	3327	120.2	0
105	3327	120.3	0
105	3327	120.4	0
105	3327	120.5	0
105	3327	120.6	0
105	3327	120.7	0
105	3327	120.8	0
105	3327	120.9	0
105	3327	121	0
105	3327	121.1	0
105	3327	121.2	0
105	3327	121.3	0
105	3327	121.4	0
105	3327	121.5	0
105	3327	121.6	0
105	3327	121.7	0
105	3327	121.8	0
105	3327	121.9	0
105	3327	122	0
105	3327	122.1	0
105	3327	122.2	0
105	3327	122.3	0
105	3327	122.4	0
105	3327	122.5	0
105	3327	122.6	0
105	3327	122.7	0
105	3327	122.8	0
105	3327	122.9	0
105	3327	123	0
105	3327	123.1	0
105	3327	123.2	0
105	3327	123.3	0
105	3327	123.4	0
105	3327	123.5	0
105	3327	123.6	0
105	3327	123.7	0
105	3327	123.8	0
105	3327	123.9	0
105	3327	124	0
105	3327	124.1	0
105	3327	124.2	0
105	3327	124.3	0
105	3327	124.4	0
105	3327	124.5	0
105	3327	124.6	0
105	3327	124.7	0
105	3327	124.8	0
105	3327	124.9	0
105	3327	125	0
105	3327	125.1	0
105	3327	125.2	0
105	3327	125.3	0
105	3327	125.4	0
105	3327	125.5	0
105	3327	125.6	0
105	3327	125.7	0
105	3327	125.8	0
105	3327	125.9	0
105	3327	126	0
105	3327	126.1	0
105	3327	126.2	0
105	3327	126.3	0
105	3327	126.4	0
105	3327	126.5	0
105	3327	126.6	0
105	3327	126.7	0
105	3327	126.8	0
105	3327	126.9	0
105	3327	127	0
105	3327	127.1	0
105	3327	127.2	0
105	3327	127.3	0
105	3327	127.4	0
105	3327	127.5	0
105	3327	127.6	0
105	3327	127.7	0
105	3327	127.8	0
105	3327	127.9	0
105	3327	128	0
105	3327	128.1	0
105	3327	128.2	0
105	3327	128.3	0
105	3327	128.4	0
105	3327	128.5	0
105	3327	128.6	0
105	3327	128.7	0
105	3327	128.8	0
105	3327	128.9	0
105	3327	129	0
105	3327	129.1	0
105	3327	129.2	0
105	3327	129.3	0
105	3327	129.4	0
105	3327	129.5	0
105	3327	129.6	0
105	3327	129.7	0
105	3327	129.8	0
105	3327	129.9	0
105	3327	130	0
105	3327	130.1	0
105	3327	130.2	0
105	3327	130.3	0
105	3327	130.4	0
105	3327	130.5	0
105	3327	130.6	0
105	3327	130.7	0
105	3327	130.8	0
105	3327	130.9	0
105	3327	131	0
105	3327	131.1	0
105	3327	131.2	0
105	3327	131.3	0
105	3327	131.4	0
105	3327	131.5	0
105	3327	131.6	0
105	3327	131.7	0
105	3327	131.8	0
105	3327	131.9	0
105	3327	132	0
105	3327	132.1	0
105	3327	132.2	0
105	3327	132.3	0
105	3327	132.4	0
105	3327	132.5	0
105	3327	132.6	0
105	3327	132.7	0
105	3327	132.8	0
105	3327	132.9	0
105	3327	133	0
105	3327	133.1	0
105	3327	133.2	0
105	3327	133.3	0
105	3327	133.4	0
105	3327	133.5	0
105	3327	133.6	0
105	3327	133.7	0
105	3327	133.8	0
105	3327	133.9	0
105	3327	134	0
105	3327	134.1	0
105	3327	134.2	0
105	3327	134.3	0
105	3327	134.4	0
105	3327	134.5	0
105	3327	134.6	0
105	3327	134.7	0
105	3327	134.8	0
105	3327	134.9	0
105	3327	135	0
105	3327	135.1	0
105	3327	135.2	0
105	3327	135.3	0
105	3327	135.4	0
105	3327	135.5	0
105	3327	135.6	0
105	3327	135.7	0
105	3327	135.8	0
105	3327	135.9	0
105	3327	136	0
105	3327	136.1	0
105	3327	136.2	0
105	3327	136.3	0
105	3327	136.4	0
105	3327	136.5	0
105	3327	136.6	0
105	3327	136.7	0
105	3327	136.8	0
105	3327	136.9	0
105	3327	137	0
105	3327	137.1	0
105	3327	137.2	0
105	3327	137.3	0
105	3327	137.4	0
105	3327	137.5	0
105	3327	137.6	0
105	3327	137.7	0
105	3327	137.8	0
105	3327	137.9	0
105	3327	138	0
105	3327	138.1	0
105	3327	138.2	0
105	3327	138.3	0
105	3327	138.4	0
105	3327	138.5	0
105	3327	138.6	0
105	3327	138.7	0
105	3327	138.8	0
105	3327	138.9	0
105	3327	139	0
105	3327	139.1	0
105	3327	139.2	0
105	3327	139.3	0
105	3327	139.4	0
105	3327	139.5	0
105	3327	139.6	0
105	3327	139.7	0
105	3327	139.8	0
105	3327	139.9	0
105	3327	140	0
105	3327	140.1	0
105	3327	140.2	0
105	3327	140.3	0
105	3327	140.4	0
105	3327	140.5	0
105	3327	140.6	0
105	3327	140.7	0
105	3327	140.8	0
105	3327	140.9	0
105	3327	141	0
105	3327	141.1	0
105	3327	141.2	0
105	3327	141.3	0
105	3327	141.4	0
105	3327	141.5	0
105	3327	141.6	0
105	3327	141.7	0
105	3327	141.8	0
105	3327	141.9	0
105	3327	142	0
105	3327	142.1	0
105	3327	142.2	0
105	3327	142.3	0
105	3327	142.4	0
105	3327	142.5	0
105	3327	142.6	0
105	3327	142.7	0
105	3327	142.8	0
105	3327	142.9	0
105	3327	143	0
105	3327	143.1	0
105	3327	143.2	0
105	3327	143.3	0
105	3327	143.4	0
105	3327	143.5	0
105	3327	143.6	0
105	3327	143.7	0
105	3327	143.8	0
105	3327	143.9	0
105	3327	144	0
105	3327	144.1	0
105	3327	144.2	0
105	3327	144.3	0
105	3327	144.4	0
105	3327	144.5	0
105	3327	144.6	0
105	3327	144.7	0
105	3327	144.8	0
105	3327	144.9	0
105	3327	145	0
105	3327	145.1	0
105	3327	145.2	0
105	3327	145.3	0
105	3327	145.4	0
105	3327	145.5	0
105	3327	145.6	0
105	3327	145.7	0
105	3327	145.8	0
105	3327	145.9	0
105	3327	146	0
105	3327	146.1	0
105	3327	146.2	0
105	3327	146.3	0
105	3327	146.4	0
105	3327	146.5	0
105	3327	146.6	0
105	3327	146.7	0
105	3327	146.8	0
105	3327	146.9	0
105	3327	147	0
105	3327	147.1	0
105	3327	147.2	0
105	3327	147.3	0
105	3327	147.4	0
105	3327	147.5	0
105	3327	147.6	0
105	3327	147.7	0
105	3327	147.8	0
105	3327	147.9	0
105	3327	148	0
105	3327	148.1	0
105	3327	148.2	0
105	3327	148.3	0
105	3327	148.4	0
105	3327	148.5	0
105	3327	148.6	0
105	3327	148.7	0
105	3327	148.8	0
105	3327	148.9	0
105	3327	149	0
105	3327	149.1	0
105	3327	149.2	0
105	3327	149.3	0
105	3327	149.4	0
105	3327	149.5	0
105	3327	149.6	0
105	3327	149.7	0
105	3327	149.8	0
105	3327	149.9	0
105	3327	150	0
105	3327	150.1	0
105	3327	150.2	0
105	3327	150.3	0
105	3327	150.4	0
105	3327	150.5	0
105	3327	150.6	0
105	3327	150.7	0
105	3327	150.8	0
105	3327	150.9	0
105	3327	151	0
105	3327	151.1	0
105	3327	151.2	0
105	3327	151.3	0
105	3327	151.4	0
105	3327	151.5	0
105	3327	151.6	0
105	3327	151.7	0
105	3327	151.8	0
105	3327	151.9	0
105	3327	152	0
105	3327	152.1	0
105	3327	152.2	0
105	3327	152.3	0
105	3327	152.4	0
105	3327	152.5	0
105	3327	152.6	0
105	3327	152.7	0
105	3327	152.8	0
105	3327	152.9	0
105	3327	153	0
105	3327	153.1	0
105	3327	153.2	0
105	3327	153.3	0
105	3327	153.4	0
105	3327	153.5	0
105	3327	153.6	0
105	3327	153.7	0
105	3327	153.8	0
105	3327	153.9	0
105	3327	154	0
105	3327	154.1	0
105	3327	154.2	0
105	3327	154.3	0
105	3327	154.4	0
105	3327	154.5	0
105	3327	154.6	0
105	3327	154.7	0
105	3327	154.8	0
105	3327	154.9	0
105	3327	155	0
105	3327	155.1	0
105	3327	155.2	0
105	3327	155.3	0
105	3327	155.4	0
105	3327	155.5	0
105	3327	155.6	0
105	3327	155.7	0
105	3327	155.8	0
105	3327	155.9	0
105	3327	156	0
105	3327	156.1	0
105	3327	156.2	0
105	3327	156.3	0
105	3327	156.4	0
105	3327	156.5	0
105	3327	156.6	0
105	3327	156.7	0
105	3327	156.8	0
105	3327	156.9	0
105	3327	157	0
105	3327	157.1	0
105	3327	157.2	0
105	3327	157.3	0
105	3327	157.4	0
105	3327	157.5	0
105	3327	157.6	0
105	3327	157.7	0
105	3327	157.8	0
105	3327	157.9	0
105	3327	158	0
105	3327	158.1	0
105	3327	158.2	0
105	3327	158.3	0
105	3327	158.4	0
105	3327	158.5	0
105	3327	158.6	0
105	3327	158.7	0
105	3327	158.8	0
105	3327	158.9	0
105	3327	159	0
105	3327	159.1	0
105	3327	159.2	0
105	3327	159.3	0
105	3327	159.4	0
105	3327	159.5	0
105	3327	159.6	0
105	3327	159.7	0
105	3327	159.8	0
105	3327	159.9	0
105	3327	160	0
105	3327	160.1	0
105	3327	160.2	0
105	3327	160.3	0
105	3327	160.4	0
105	3327	160.5	0
105	3327	160.6	0
105	3327	160.7	0
105	3327	160.8	0
105	3327	160.9	0
105	3327	161	0
105	3327	161.1	0
105	3327	161.2	0
105	3327	161.3	0
105	3327	161.4	0
105	3327	161.5	0
105	3327	161.6	0
105	3327	161.7	0
105	3327	161.8	0
105	3327	161.9	0
105	3327	162	0
105	3327	162.1	0
105	3327	162.2	0
105	3327	162.3	0
105	3327	162.4	0
105	3327	162.5	0
105	3327	162.6	0
105	3327	162.7	0
105	3327	162.8	0
105	3327	162.9	0
105	3327	163	0
105	3327	163.1	0
105	3327	163.2	0
105	3327	163.3	0
105	3327	163.4	0
105	3327	163.5	0
105	3327	163.6	0
105	3327	163.7	0
105	3327	163.8	0
105	3327	163.9	0
105	3327	164	0
105	3327	164.1	0
105	3327	164.2	0
105	3327	164.3	0
105	3327	164.4	0
105	3327	164.5	0
105	3327	164.6	0
105	3327	164.7	0
105	3327	164.8	0
105	3327	164.9	0
105	3327	165	0
105	3327	165.1	0
105	3327	165.2	0
105	3327	165.3	0
105	3327	165.4	0
105	3327	165.5	0
105	3327	165.6	0
105	3327	165.7	0
105	3327	165.8	0
105	3327	165.9	0
105	3327	166	0
105	3327	166.1	0
105	3327	166.2	0
105	3327	166.3	0
105	3327	166.4	0
105	3327	166.5	0
105	3327	166.6	0
105	3327	166.7	0
105	3327	166.8	0
105	3327	166.9	0
105	3327	167	0
105	3327	167.1	0
105	3327	167.2	0
105	3327	167.3	0
105	3327	167.4	0
105	3327	167.5	0
105	3327	167.6	0
105	3327	167.7	0
105	3327	167.8	0
105	3327	167.9	0
105	3327	168	0
105	3327	168.1	0
105	3592	168.2	81920
105	3592	168.3	0
105	3592	168.4	0
105	3592	168.5	0
105	3592	168.6	0
105	3592	168.7	0
105	3592	168.8	0
105	3592	168.9	0
105	3592	169	0
105	3592	169.1	0
105	3592	169.2	0
105	3592	169.3	0
105	3592	169.4	0
105	3592	169.5	0
105	3592	169.6	0
105	3592	169.7	0
105	3592	169.8	0
105	3592	169.9	0
105	3592	170	0
105	3592	170.1	0
105	3592	170.2	0
105	3592	170.3	0
105	3592	170.4	0
105	3592	170.5	0
105	3592	170.6	0
105	3592	170.7	0
105	3592	170.8	0
105	3592	170.9	0
105	3592	171	0
105	3592	171.1	0
105	3592	171.2	0
105	3592	171.3	0
105	3592	171.4	0
105	3592	171.5	0
105	3592	171.6	0
105	3592	171.7	0
105	3592	171.8	0
105	3592	171.9	0
105	3592	172	0
105	3592	172.1	0
105	3592	172.2	0
105	3592	172.3	0
105	3592	172.4	0
105	3592	172.5	0
105	3592	172.6	0
105	3592	172.7	0
105	3592	172.8	0
105	3592	172.9	0
105	3592	173	0
105	3592	173.1	0
105	3592	173.2	0
105	3592	173.3	0
105	3592	173.4	0
105	3592	173.5	0
105	3592	173.6	0
105	3592	173.7	0
105	3592	173.8	0
105	3592	173.9	0
105	3592	174	0
105	3592	174.1	0
105	3592	174.2	0
105	3592	174.3	0
105	3592	174.4	0
105	3592	174.5	0
105	3592	174.6	0
105	3592	174.7	0
105	3592	174.8	0
105	3592	174.9	0
105	3592	175	0
105	3592	175.1	0
105	3592	175.2	0
105	3592	175.3	0
105	3592	175.4	0
105	3592	175.5	0
105	3592	175.6	0
105	3592	175.7	0
105	3592	175.8	0
105	3592	175.9	0
105	3592	176	0
105	3592	176.1	0
105	3592	176.2	0
105	3592	176.3	0
105	3592	176.4	0
105	3592	176.5	0
105	3592	176.6	0
105	3592	176.7	0
105	3592	176.8	0
105	3592	176.9	0
105	3592	177	0
105	3592	177.1	0
105	3592	177.2	0
105	3592	177.3	0
105	3592	177.4	0
105	3592	177.5	0
105	3592	177.6	0
105	3592	177.7	0
105	3592	177.8	0
105	3592	177.9	0
105	3592	178	0
105	3592	178.1	0
105	3592	178.2	0
105	3592	178.3	0
105	3592	178.4	0
105	3592	178.5	0
105	3592	178.6	0
105	3592	178.7	0
105	3592	178.8	0
105	3592	178.9	0
105	3592	179	0
105	3592	179.1	0
105	3592	179.2	0
105	3592	179.3	0
105	3592	179.4	0
105	3592	179.5	0
105	3592	179.6	0
105	3592	179.7	0
105	3592	179.8	0
105	3592	179.9	0
105	3592	180	0
105	3592	180.1	0
105	3592	180.2	0
105	3592	180.3	0
105	3592	180.4	0
105	3592	180.5	0
105	3592	180.6	0
105	3592	180.7	0
105	3592	180.8	0
105	3592	180.9	0
105	3592	181	0
105	3592	181.1	0
105	3592	181.2	0
105	3592	181.3	0
105	3592	181.4	0
105	3592	181.5	0
105	3592	181.6	0
105	3592	181.7	0
105	3592	181.8	0
105	3592	181.9	0
105	3592	182	0
105	3592	182.1	0
105	3592	182.2	0
105	3592	182.3	0
105	3592	182.4	0
105	3592	182.5	0
105	3592	182.6	0
105	3592	182.7	0
105	3592	182.8	0
105	3592	182.9	0
105	3592	183	0
105	3592	183.1	0
105	3592	183.2	0
105	3592	183.3	0
105	3592	183.4	0
105	3592	183.5	0
105	3592	183.6	0
105	3592	183.7	0
105	3592	183.8	0
105	3592	183.9	0
105	3592	184	0
105	3592	184.1	0
105	3592	184.2	0
105	3592	184.3	0
105	3592	184.4	0
105	3592	184.5	0
105	3592	184.6	0
105	3592	184.7	0
105	3592	184.8	0
105	3592	184.9	0
105	3592	185	0
105	3592	185.1	0
105	3592	185.2	0
105	3592	185.3	0
105	3592	185.4	0
105	3592	185.5	0
105	3592	185.6	0
105	3592	185.7	0
105	3592	185.8	0
105	3592	185.9	0
105	3592	186	0
105	3592	186.1	0
105	3592	186.2	0
105	3592	186.3	0
105	3592	186.4	0
105	3592	186.5	0
105	3592	186.6	0
105	3592	186.7	0
105	3592	186.8	0
105	3592	186.9	0
105	3592	187	0
105	3592	187.1	0
105	3592	187.2	0
105	3592	187.3	0
105	3592	187.4	0
105	3592	187.5	0
105	3592	187.6	0
105	3592	187.7	0
105	3592	187.8	0
105	3592	187.9	0
105	3592	188	0
105	3592	188.1	0
105	3592	188.2	0
105	3592	188.3	0
105	3592	188.4	0
105	3592	188.5	0
105	3592	188.6	0
105	3592	188.7	0
105	3592	188.8	0
105	3592	188.9	0
105	3592	189	0
105	3592	189.1	0
105	3592	189.2	0
105	3592	189.3	0
105	3592	189.4	0
105	3592	189.5	0
105	3592	189.6	0
105	3592	189.7	0
105	3592	189.8	0
105	3592	189.9	0
105	3592	190	0
105	3592	190.1	0
105	3592	190.2	0
105	3592	190.3	0
105	3592	190.4	0
105	3592	190.5	0
105	3592	190.6	0
105	3592	190.7	0
105	3592	190.8	0
105	3592	190.9	0
105	3592	191	0
105	3592	191.1	0
105	3592	191.2	0
105	3592	191.3	0
105	3592	191.4	0
105	3592	191.5	0
105	3592	191.6	0
105	3592	191.7	0
105	3592	191.8	0
105	3592	191.9	0
105	3592	192	0
105	3592	192.1	0
105	3592	192.2	0
105	3592	192.3	0
105	3592	192.4	0
105	3592	192.5	0
105	3592	192.6	0
105	3592	192.7	0
105	3592	192.8	0
104	151	6.28284899197	512
104	177	7.243	512
104	445	20.345848549927	512
104	687	29.817424051678	512
104	739	29.817919399176	512
104	774	29.818454100221	512
104	785	29.887424051678	512
104	793	29.887424051678	512
104	860	29.933849310358	512
104	902	30.207424359267	512
104	953	30.245424658729	512
104	972	30.245958707	512
104	994	30.308424359267	512
104	995	30.379424658729	512
104	1074	35.230424463392	512
104	1087	35.374424463392	512
104	1168	40.232424365421	512
104	1179	40.266424365421	512
104	1187	40.266424365421	512
104	1246	40.270424203823	512
104	1254	40.270424203823	512
104	1380	42.197	512
104	1388	42.197	512
104	1576	56.162	512
104	1584	56.162	512
104	1789	64.216424348879	512
104	1795	64.258424348879	512
104	2036	75.217424070779	512
104	2047	75.338424070779	512
104	2070	77.116	512
104	2078	77.116	512
104	2176	80.167424301766	512
104	2212	80.167906735381	512
104	2219	80.322424301766	512
104	2227	80.322424301766	512
104	2464	92.811424627396	512
104	2470	92.953424627396	512
104	2564	98.195	512
104	2572	98.195	512
104	3327	168.197	512
104	3335	168.197	512
170	785	29.887424051678	512
170	1179	40.266424365421	512
170	1246	40.270424203823	512
170	1380	42.197	512
170	1576	56.162	512
170	2070	77.116	512
170	2219	80.322424301766	512
170	2564	98.195	512
170	3327	168.197	512
120	173	7.1	0
120	258	14.1	0.5
120	562	21.1	0.66666668653488
120	642	28.1	0.75
120	687	29.817424051678	0.60000002384186
120	902	30.207424359267	0.5
120	953	30.245424658729	0.4285714328289
120	1044	35.1	0.5
120	1074	35.230424463392	0.44444444775581
120	1168	40.232424365421	0.40000000596046
120	1246	40.270424203823	0.45454546809196
120	1376	42.1	0.41666665673256
120	1498	49.1	0.46153846383095
120	1573	56.1	0.4285714328289
120	1750	63.1	0.46666666865349
120	1789	64.216424348879	0.4375
120	1948	70.1	0.4705882370472
120	2036	75.217424070779	0.44444444775581
120	2067	77.1	0.42105263471603
120	2176	80.167424301766	0.40000000596046
120	2294	84.1	0.4285714328289
120	2406	91.1	0.45454546809196
120	2464	92.811424627396	0.43478259444237
120	2561	98.1	0.41666665673256
120	2679	105.1	0.43999999761581
120	2753	112.1	0.46153846383095
120	2825	119.1	0.48148149251938
120	2898	126.1	0.5
120	2969	133.1	0.51724135875702
120	3040	140.1	0.53333336114883
120	3111	147.1	0.54838711023331
120	3182	154.1	0.5625
120	3253	161.1	0.57575756311417
120	3324	168.1	0.55882352590561
120	3412	175.1	0.57142859697342
120	3483	182.1	0.58333331346512
120	3554	189.1	0.59459459781647
125	258	14.1	1
125	562	21.1	2
125	642	28.1	3
125	1044	35.1	4
125	1246	40.270424203823	5
125	1498	49.1	6
125	1750	63.1	7
125	1948	70.1	8
125	2294	84.1	9
125	2406	91.1	10
125	2679	105.1	11
125	2753	112.1	12
125	2825	119.1	13
125	2898	126.1	14
125	2969	133.1	15
125	3040	140.1	16
125	3111	147.1	17
125	3182	154.1	18
125	3253	161.1	19
125	3412	175.1	20
125	3483	182.1	21
125	3554	189.1	22
119	173	7.1	1
119	258	14.1	2
119	562	21.1	3
119	642	28.1	4
119	687	29.817424051678	5
119	902	30.207424359267	6
119	953	30.245424658729	7
119	1044	35.1	8
119	1074	35.230424463392	9
119	1168	40.232424365421	10
119	1246	40.270424203823	11
119	1376	42.1	12
119	1498	49.1	13
119	1573	56.1	14
119	1750	63.1	15
119	1789	64.216424348879	16
119	1948	70.1	17
119	2036	75.217424070779	18
119	2067	77.1	19
119	2176	80.167424301766	20
119	2294	84.1	21
119	2406	91.1	22
119	2464	92.811424627396	23
119	2561	98.1	24
119	2679	105.1	25
119	2753	112.1	26
119	2825	119.1	27
119	2898	126.1	28
119	2969	133.1	29
119	3040	140.1	30
119	3111	147.1	31
119	3182	154.1	32
119	3253	161.1	33
119	3324	168.1	34
119	3412	175.1	35
119	3483	182.1	36
119	3554	189.1	37
121	175	7.1	1
121	688	29.817424051678	2
121	903	30.207424359267	3
121	954	30.245424658729	4
121	1075	35.230424463392	5
121	1169	40.232424365421	6
121	1379	42.1	7
121	1575	56.1	8
121	1790	64.216424348879	9
121	2037	75.217424070779	10
121	2069	77.1	11
121	2177	80.167424301766	12
121	2465	92.811424627396	13
121	2563	98.1	14
121	3326	168.1	15

